
 Fire Dynamics Simulator

 Current Date     : March 16, 2020  17:40:33
 Revision         : FDS6.7.1-0-g14cc738-HEAD
 Revision Date    : Mon Feb 4 12:26:25 2019 -0500
 Compiler         : Intel ifort 19.0.1.144
 Compilation Date : Wed 02/13/2019  03:33 PM

 MPI Enabled;    Number of MPI Processes:      14
 OpenMP Enabled; Number of OpenMP Threads:      1

 MPI version: 3.1
 MPI library version: Intel(R) MPI Library 2019 for Windows* OS


 Job TITLE        : 
 Job ID string    : Model_3_16_20


 Grid Dimensions, Mesh     1

   Cells in the X Direction           227
   Cells in the Y Direction            68
   Cells in the Z Direction            57
   Number of Grid Cells            879852


 Physical Dimensions, Mesh     1

   Length (m)                      69.190
   Width  (m)                      20.726
   Height (m)                      17.374
   Initial Time Step (s)            0.045

 Grid Dimensions, Mesh     2

   Cells in the X Direction           218
   Cells in the Y Direction            68
   Cells in the Z Direction            57
   Number of Grid Cells            844968


 Physical Dimensions, Mesh     2

   Length (m)                      66.446
   Width  (m)                      20.726
   Height (m)                      17.374
   Initial Time Step (s)            0.045

 Grid Dimensions, Mesh     3

   Cells in the X Direction            90
   Cells in the Y Direction           136
   Cells in the Z Direction            76
   Number of Grid Cells            930240


 Physical Dimensions, Mesh     3

   Length (m)                      13.716
   Width  (m)                      20.726
   Height (m)                      11.582
   Initial Time Step (s)            0.045

 Grid Dimensions, Mesh     4

   Cells in the X Direction            90
   Cells in the Y Direction           136
   Cells in the Z Direction            76
   Number of Grid Cells            930240


 Physical Dimensions, Mesh     4

   Length (m)                      13.716
   Width  (m)                      20.726
   Height (m)                      11.582
   Initial Time Step (s)            0.045

 Grid Dimensions, Mesh     5

   Cells in the X Direction            90
   Cells in the Y Direction           136
   Cells in the Z Direction            76
   Number of Grid Cells            930240


 Physical Dimensions, Mesh     5

   Length (m)                      13.716
   Width  (m)                      20.726
   Height (m)                      11.582
   Initial Time Step (s)            0.045

 Grid Dimensions, Mesh     6

   Cells in the X Direction            90
   Cells in the Y Direction           136
   Cells in the Z Direction            76
   Number of Grid Cells            930240


 Physical Dimensions, Mesh     6

   Length (m)                      13.716
   Width  (m)                      20.726
   Height (m)                      11.582
   Initial Time Step (s)            0.045

 Grid Dimensions, Mesh     7

   Cells in the X Direction            94
   Cells in the Y Direction           136
   Cells in the Z Direction            76
   Number of Grid Cells            971584


 Physical Dimensions, Mesh     7

   Length (m)                      14.326
   Width  (m)                      20.726
   Height (m)                      11.582
   Initial Time Step (s)            0.045

 Grid Dimensions, Mesh     8

   Cells in the X Direction           100
   Cells in the Y Direction           136
   Cells in the Z Direction           114
   Number of Grid Cells           1550400


 Physical Dimensions, Mesh     8

   Length (m)                      15.240
   Width  (m)                      20.726
   Height (m)                      17.374
   Initial Time Step (s)            0.045

 Grid Dimensions, Mesh     9

   Cells in the X Direction           100
   Cells in the Y Direction           136
   Cells in the Z Direction            76
   Number of Grid Cells           1033600


 Physical Dimensions, Mesh     9

   Length (m)                      15.240
   Width  (m)                      20.726
   Height (m)                      11.582
   Initial Time Step (s)            0.045

 Grid Dimensions, Mesh    10

   Cells in the X Direction           108
   Cells in the Y Direction           136
   Cells in the Z Direction            76
   Number of Grid Cells           1116288


 Physical Dimensions, Mesh    10

   Length (m)                      16.459
   Width  (m)                      20.726
   Height (m)                      11.582
   Initial Time Step (s)            0.045

 Grid Dimensions, Mesh    11

   Cells in the X Direction           108
   Cells in the Y Direction           136
   Cells in the Z Direction            76
   Number of Grid Cells           1116288


 Physical Dimensions, Mesh    11

   Length (m)                      16.459
   Width  (m)                      20.726
   Height (m)                      11.582
   Initial Time Step (s)            0.045

 Grid Dimensions, Mesh    12

   Cells in the X Direction           108
   Cells in the Y Direction           136
   Cells in the Z Direction            76
   Number of Grid Cells           1116288


 Physical Dimensions, Mesh    12

   Length (m)                      16.459
   Width  (m)                      20.726
   Height (m)                      11.582
   Initial Time Step (s)            0.045

 Grid Dimensions, Mesh    13

   Cells in the X Direction           112
   Cells in the Y Direction           136
   Cells in the Z Direction            76
   Number of Grid Cells           1157632


 Physical Dimensions, Mesh    13

   Length (m)                      17.069
   Width  (m)                      20.726
   Height (m)                      11.582
   Initial Time Step (s)            0.045

 Grid Dimensions, Mesh    14

   Cells in the X Direction            56
   Cells in the Y Direction            98
   Cells in the Z Direction            70
   Number of Grid Cells            384160


 Physical Dimensions, Mesh    14

   Length (m)                       8.534
   Width  (m)                      14.935
   Height (m)                      10.668
   Initial Time Step (s)            0.045

 Grid Dimensions, Mesh    15

   Cells in the X Direction            57
   Cells in the Y Direction            50
   Cells in the Z Direction            70
   Number of Grid Cells            199500


 Physical Dimensions, Mesh    15

   Length (m)                       8.687
   Width  (m)                       7.620
   Height (m)                      10.668
   Initial Time Step (s)            0.045

 Grid Dimensions, Mesh    16

   Cells in the X Direction            48
   Cells in the Y Direction            48
   Cells in the Z Direction            70
   Number of Grid Cells            161280


 Physical Dimensions, Mesh    16

   Length (m)                       7.315
   Width  (m)                       7.315
   Height (m)                      10.668
   Initial Time Step (s)            0.045

 Grid Dimensions, Mesh    17

   Cells in the X Direction            44
   Cells in the Y Direction            48
   Cells in the Z Direction            38
   Number of Grid Cells             80256


 Physical Dimensions, Mesh    17

   Length (m)                       6.706
   Width  (m)                       7.315
   Height (m)                       5.791
   Initial Time Step (s)            0.045

 Grid Dimensions, Mesh    18

   Cells in the X Direction            36
   Cells in the Y Direction           106
   Cells in the Z Direction            44
   Number of Grid Cells            167904


 Physical Dimensions, Mesh    18

   Length (m)                       5.486
   Width  (m)                      16.154
   Height (m)                       6.706
   Initial Time Step (s)            0.045

 Grid Dimensions, Mesh    19

   Cells in the X Direction            36
   Cells in the Y Direction            60
   Cells in the Z Direction            43
   Number of Grid Cells             92880


 Physical Dimensions, Mesh    19

   Length (m)                       5.486
   Width  (m)                       9.144
   Height (m)                       6.553
   Initial Time Step (s)            0.045

 Grid Dimensions, Mesh    20

   Cells in the X Direction            18
   Cells in the Y Direction            12
   Cells in the Z Direction            15
   Number of Grid Cells              3240


 Physical Dimensions, Mesh    20

   Length (m)                       5.486
   Width  (m)                       3.658
   Height (m)                       4.572
   Initial Time Step (s)            0.045

 Grid Dimensions, Mesh    21

   Cells in the X Direction            85
   Cells in the Y Direction            36
   Cells in the Z Direction            23
   Number of Grid Cells             70380


 Physical Dimensions, Mesh    21

   Length (m)                      25.908
   Width  (m)                      10.973
   Height (m)                       7.010
   Initial Time Step (s)            0.045

Total Number of Grid Cells      14667460


 Miscellaneous Parameters

   Simulation Start Time (s)       -150.0
   Simulation End Time (s)         1200.0
   LES Calculation
   Eddy Viscosity:           Deardorff Model (C_DEARDORFF = 0.10)
   Near-wall Eddy Viscosity: Smagorinsky with Van Driest damping (C_SMAGORINSKY = 0.20)
   Turbulent Prandtl Number          0.50
   Turbulent Schmidt Number          0.50
   Ambient Temperature (C)          29.44


 Mass Fraction Transformation Matrix to Convert Species Mixtures (Columns) to Primitive Species (Rows)

                         AIR       PRODUCTS  PRODUCTS  CARBON M  WATER VA  Wood_red  PU_GM27 
   OXYGEN                0.233008  0.000000  0.000000  0.000000  0.000000  0.000000  0.000000
   NITROGEN              0.766992  0.671362  0.650970  0.000000  0.000000  0.000000  0.000000
   CARBON DIOXIDE        0.000000  0.192460  0.254563  0.000000  0.000000  0.000000  0.000000
   SOOT                  0.000000  0.026599  0.002273  0.000000  0.000000  0.000000  0.000000
   HYDROGEN CYANIDE      0.000000  0.000672  0.000000  0.000000  0.000000  0.000000  0.000000
   CARBON MONOXIDE       0.000000  0.006713  0.000606  1.000000  0.000000  0.000000  0.000000
   WATER VAPOR           0.000000  0.102195  0.091589  0.000000  1.000000  0.000000  0.000000
   Wood_red_oak          0.000000  0.000000  0.000000  0.000000  0.000000  1.000000  0.000000
   PU_GM27               0.000000  0.000000  0.000000  0.000000  0.000000  0.000000  1.000000


 Primitive Species Information

   OXYGEN
   Gas Species
   Molecular Weight (g/mol)            31.99880
   Ambient Density (kg/m^3)            1.526
   Enthalpy of Formation (J/kg)        0.00E+00

   NITROGEN
   Gas Species
   Molecular Weight (g/mol)            28.01340
   Ambient Density (kg/m^3)            1.336
   Enthalpy of Formation (J/kg)        0.00E+00

   CARBON DIOXIDE
   Gas Species
   Molecular Weight (g/mol)            44.00950
   Ambient Density (kg/m^3)            2.099
   Enthalpy of Formation (J/kg)       -8.94E+06

   SOOT
   Gas Species
   Molecular Weight (g/mol)            10.91042
   Ambient Density (kg/m^3)            0.520
   Enthalpy of Formation (J/kg)        0.00E+00

   HYDROGEN CYANIDE
   Gas Species
   Molecular Weight (g/mol)            27.02534
   Ambient Density (kg/m^3)            1.289
   Enthalpy of Formation (J/kg)        4.92E+06

   CARBON MONOXIDE
   Gas Species
   Molecular Weight (g/mol)            28.01010
   Ambient Density (kg/m^3)            1.336
   Enthalpy of Formation (J/kg)       -3.95E+06

   WATER VAPOR
   Gas Species
   Molecular Weight (g/mol)            18.01528
   Ambient Density (kg/m^3)            0.859
   Enthalpy of Formation (J/kg)       -1.34E+07

   Wood_red_oak
   Gas Species
   Molecular Weight (g/mol)            25.25777
   Ambient Density (kg/m^3)            1.205
   Enthalpy of Formation (J/kg)       -1.08E+07

   PU_GM27
   Gas Species
   Molecular Weight (g/mol)            19.64455
   Ambient Density (kg/m^3)            0.937
   Enthalpy of Formation (J/kg)       -6.82E+06


 Tracked (Lumped) Species Information

   AIR
   Molecular Weight (g/mol)            28.85067
   Ambient Density (kg/m^3)            1.376
   Initial Mass Fraction               1.000
   Enthalpy of Formation (J/kg)      0.00E+00

   Sub Species                    Mass Fraction     Mole Fraction
   OXYGEN                         2.330080E-01      2.100840E-01
   NITROGEN                       7.669920E-01      7.899160E-01
 
     Viscosity (kg/m/s) Ambient,  303 K:  1.85E-05
                                  500 K:  2.62E-05
                                 1000 K:  4.13E-05
                                 1500 K:  5.37E-05
   Therm. Cond. (W/m/K) Ambient,  303 K:  2.63E-02
                                  500 K:  3.82E-02
                                 1000 K:  6.67E-02
                                 1500 K:  9.22E-02
        Enthalpy (J/kg) Ambient,  303 K:  4.90E+03
                                  500 K:  2.06E+05
                                 1000 K:  7.53E+05
                                 1500 K:  1.35E+06
    Spec. Heat (J/kg/K) Ambient,  303 K:  1.01E+03
                                  500 K:  1.04E+03
                                 1000 K:  1.15E+03
                                 1500 K:  1.22E+03
   Diff. Coeff. (m^2/s) Ambient,  303 K:  2.11E-05
                                  500 K:  4.95E-05
                                 1000 K:  1.58E-04
                                 1500 K:  3.09E-04

   PRODUCTS_1
   Molecular Weight (g/mol)            27.23757
   Ambient Density (kg/m^3)            1.299
   Initial Mass Fraction               0.000
   Enthalpy of Formation (J/kg)     -3.12E+06

   Sub Species                    Mass Fraction     Mole Fraction
   NITROGEN                       6.713623E-01      6.527690E-01
   CARBON DIOXIDE                 1.924595E-01      1.191136E-01
   SOOT                           2.659860E-02      6.640268E-02
   HYDROGEN CYANIDE               6.720539E-04      6.773315E-04
   CARBON MONOXIDE                6.712832E-03      6.527690E-03
   WATER VAPOR                    1.021947E-01      1.545097E-01
 
     Viscosity (kg/m/s) Ambient,  303 K:  1.63E-05
                                  500 K:  2.35E-05
                                 1000 K:  3.83E-05
                                 1500 K:  5.06E-05
   Therm. Cond. (W/m/K) Ambient,  303 K:  2.36E-02
                                  500 K:  3.62E-02
                                 1000 K:  6.81E-02
                                 1500 K:  9.77E-02
        Enthalpy (J/kg) Ambient,  303 K: -3.11E+06
                                  500 K: -2.89E+06
                                 1000 K: -2.28E+06
                                 1500 K: -1.59E+06
    Spec. Heat (J/kg/K) Ambient,  303 K:  1.08E+03
                                  500 K:  1.14E+03
                                 1000 K:  1.31E+03
                                 1500 K:  1.42E+03
   Diff. Coeff. (m^2/s) Ambient,  303 K:  2.11E-05
                                  500 K:  5.05E-05
                                 1000 K:  1.63E-04
                                 1500 K:  3.20E-04

   PRODUCTS_2
   Molecular Weight (g/mol)            29.12398
   Ambient Density (kg/m^3)            1.389
   Initial Mass Fraction               0.000
   Enthalpy of Formation (J/kg)     -3.51E+06

   Sub Species                    Mass Fraction     Mole Fraction
   NITROGEN                       6.509698E-01      6.767771E-01
   CARBON DIOXIDE                 2.545626E-01      1.684608E-01
   SOOT                           2.272965E-03      6.067389E-03
   CARBON MONOXIDE                6.060288E-04      6.301287E-04
   WATER VAPOR                    9.158860E-02      1.480645E-01
 
     Viscosity (kg/m/s) Ambient,  303 K:  1.65E-05
                                  500 K:  2.39E-05
                                 1000 K:  3.89E-05
                                 1500 K:  5.14E-05
   Therm. Cond. (W/m/K) Ambient,  303 K:  2.35E-02
                                  500 K:  3.59E-02
                                 1000 K:  6.69E-02
                                 1500 K:  9.58E-02
        Enthalpy (J/kg) Ambient,  303 K: -3.50E+06
                                  500 K: -3.29E+06
                                 1000 K: -2.68E+06
                                 1500 K: -2.01E+06
    Spec. Heat (J/kg/K) Ambient,  303 K:  1.07E+03
                                  500 K:  1.13E+03
                                 1000 K:  1.29E+03
                                 1500 K:  1.39E+03
   Diff. Coeff. (m^2/s) Ambient,  303 K:  2.05E-05
                                  500 K:  4.89E-05
                                 1000 K:  1.58E-04
                                 1500 K:  3.11E-04

   CARBON MONOXIDE
   Molecular Weight (g/mol)            28.01010
   Ambient Density (kg/m^3)            1.336
   Initial Mass Fraction               0.000
   Enthalpy of Formation (J/kg)     -3.95E+06

   Sub Species                    Mass Fraction     Mole Fraction
   CARBON MONOXIDE                1.000000E+00      1.000000E+00
 
     Viscosity (kg/m/s) Ambient,  303 K:  1.78E-05
                                  500 K:  2.55E-05
                                 1000 K:  4.03E-05
                                 1500 K:  5.24E-05
   Therm. Cond. (W/m/K) Ambient,  303 K:  2.54E-02
                                  500 K:  3.71E-02
                                 1000 K:  6.54E-02
                                 1500 K:  9.03E-02
        Enthalpy (J/kg) Ambient,  303 K: -3.94E+06
                                  500 K: -3.73E+06
                                 1000 K: -3.17E+06
                                 1500 K: -2.56E+06
    Spec. Heat (J/kg/K) Ambient,  303 K:  1.04E+03
                                  500 K:  1.06E+03
                                 1000 K:  1.18E+03
                                 1500 K:  1.26E+03
   Diff. Coeff. (m^2/s) Ambient,  303 K:  2.10E-05
                                  500 K:  4.96E-05
                                 1000 K:  1.58E-04
                                 1500 K:  3.10E-04

   WATER VAPOR
   Molecular Weight (g/mol)            18.01528
   Ambient Density (kg/m^3)            0.859
   Initial Mass Fraction               0.000
   Enthalpy of Formation (J/kg)     -1.34E+07

   Sub Species                    Mass Fraction     Mole Fraction
   WATER VAPOR                    1.000000E+00      1.000000E+00
 
     Viscosity (kg/m/s) Ambient,  303 K:  1.09E-05
                                  500 K:  1.77E-05
                                 1000 K:  3.58E-05
                                 1500 K:  5.21E-05
   Therm. Cond. (W/m/K) Ambient,  303 K:  2.02E-02
                                  500 K:  3.46E-02
                                 1000 K:  8.21E-02
                                 1500 K:  1.37E-01
        Enthalpy (J/kg) Ambient,  303 K: -1.34E+07
                                  500 K: -1.30E+07
                                 1000 K: -1.20E+07
                                 1500 K: -1.07E+07
    Spec. Heat (J/kg/K) Ambient,  303 K:  1.87E+03
                                  500 K:  1.96E+03
                                 1000 K:  2.29E+03
                                 1500 K:  2.63E+03
   Diff. Coeff. (m^2/s) Ambient,  303 K:  2.24E-05
                                  500 K:  5.78E-05
                                 1000 K:  1.98E-04
                                 1500 K:  3.95E-04
 
   Liq. Enthalpy (J/kg)     Melt  273 K: -1.60E+07
                                  323 K: -1.58E+07
                            Boil  373 K: -1.56E+07
 
   Liq. Spec. Heat (J/kg/K) Melt  273 K:  4.23E+03
                                  323 K:  4.18E+03
                            Boil  373 K:  4.22E+03
 
   Heat of Vapor. (J/kg)    Melt  273 K:  2.50E+06
                                  323 K:  2.39E+06
                            Boil  373 K:  2.27E+06

   Wood_red_oak
   Molecular Weight (g/mol)            25.25777
   Ambient Density (kg/m^3)            1.205
   Initial Mass Fraction               0.000
   Enthalpy of Formation (J/kg)     -1.08E+07

   Sub Species                    Mass Fraction     Mole Fraction
   Wood_red_oak                   1.000000E+00      1.000000E+00
 
     Viscosity (kg/m/s) Ambient,  303 K:  1.69E-05
                                  500 K:  2.38E-05
                                 1000 K:  3.75E-05
                                 1500 K:  4.88E-05
   Therm. Cond. (W/m/K) Ambient,  303 K:  2.75E-02
                                  500 K:  3.87E-02
                                 1000 K:  6.08E-02
                                 1500 K:  7.91E-02
        Enthalpy (J/kg) Ambient,  303 K: -1.04E+07
                                  500 K: -1.02E+07
                                 1000 K: -9.62E+06
                                 1500 K: -9.05E+06
    Spec. Heat (J/kg/K) Ambient,  303 K:  1.15E+03
                                  500 K:  1.15E+03
                                 1000 K:  1.15E+03
                                 1500 K:  1.15E+03
   Diff. Coeff. (m^2/s) Ambient,  303 K:  2.16E-05
                                  500 K:  5.07E-05
                                 1000 K:  1.61E-04
                                 1500 K:  3.15E-04

   PU_GM27
   Molecular Weight (g/mol)            19.64455
   Ambient Density (kg/m^3)            0.937
   Initial Mass Fraction               0.000
   Enthalpy of Formation (J/kg)     -6.82E+06

   Sub Species                    Mass Fraction     Mole Fraction
   PU_GM27                        1.000000E+00      1.000000E+00
 
     Viscosity (kg/m/s) Ambient,  303 K:  1.49E-05
                                  500 K:  2.10E-05
                                 1000 K:  3.31E-05
                                 1500 K:  4.30E-05
   Therm. Cond. (W/m/K) Ambient,  303 K:  3.11E-02
                                  500 K:  4.39E-02
                                 1000 K:  6.90E-02
                                 1500 K:  8.97E-02
        Enthalpy (J/kg) Ambient,  303 K: -6.36E+06
                                  500 K: -6.08E+06
                                 1000 K: -5.34E+06
                                 1500 K: -4.59E+06
    Spec. Heat (J/kg/K) Ambient,  303 K:  1.48E+03
                                  500 K:  1.48E+03
                                 1000 K:  1.48E+03
                                 1500 K:  1.48E+03
   Diff. Coeff. (m^2/s) Ambient,  303 K:  2.32E-05
                                  500 K:  5.43E-05
                                 1000 K:  1.73E-04
                                 1500 K:  3.38E-04


 Gas Phase Reaction Information

   Fuel                                           Heat of Combustion (kJ/kg)
   PU_GM27                                                        16400.0000

   Stoichiometry

   Primitive Species Stoich. Coeff.
   Species ID                                                          Molar
   OXYGEN                                                          -0.922830
   NITROGEN                                                         0.038159
   CARBON DIOXIDE                                                   0.640120
   SOOT                                                             0.356850
   HYDROGEN CYANIDE                                                 0.003640
   CARBON MONOXIDE                                                  0.035080
   WATER VAPOR                                                      0.830340
   PU_GM27                                                         -1.000000

   Tracked (Lumped) Species Stoich. Coeff.
   Species ID                                             Molar         Mass
   AIR                                                -4.392671    -6.451228
   PRODUCTS_1                                          5.374030     7.451201
   PU_GM27                                            -1.000000    -1.000000

   Reaction Kinetics

   Arrhenius Parameters
   Pre-exponential:    Infinite
   Activation Energy:  N/A

   ODE Solver:  EXPLICIT EULER
   Extinction Model:  EXTINCTION 2
   Ignition Temperature (K):            0.0
   Critical Flame Temperature (K):   1700.2

   Fuel                                           Heat of Combustion (kJ/kg)
   Wood_red_oak                                                   12400.0000

   Stoichiometry

   Primitive Species Stoich. Coeff.
   Species ID                                                          Molar
   OXYGEN                                                          -1.031050
   NITROGEN                                                         0.000500
   CARBON DIOXIDE                                                   0.965110
   SOOT                                                             0.034760
   CARBON MONOXIDE                                                  0.003610
   WATER VAPOR                                                      0.848260
   Wood_red_oak                                                    -1.000000

   Tracked (Lumped) Species Stoich. Coeff.
   Species ID                                             Molar         Mass
   AIR                                                -4.907798    -5.605928
   PRODUCTS_2                                          5.728988     6.605923
   Wood_red_oak                                       -1.000000    -1.000000

   Reaction Kinetics

   Arrhenius Parameters
   Pre-exponential:    Infinite
   Activation Energy:  N/A

   ODE Solver:  EXPLICIT EULER
   Extinction Model:  EXTINCTION 2
   Ignition Temperature (K):            0.0
   Critical Flame Temperature (K):   1700.2


 Material Information


 Surface Conditions

   0 INERT

   1 ADIABATIC (DEFAULT)

   2 Steel ASTM A500, Grade B, Rectangular and Square

   3 Concrete - Cast-in-Place Gravel layer

   4 Shotcrete (Default)

   5 Excavation Material

   6 181_0_0(10)

   7 251_50_28(3)

   8 0_128_255(3)

   9 210_210_255

  10 Glass

  11 Door - Panel

  12 Door - Frame

  13 Steel ASTM A992

  14 IfcRailing

  15 Steel ASTM A36

  16 Concrete - Cast-in-Place Concrete

  17 Steel

  18 METAL GRATING

  19 Masonry - Concrete Masonry Units

  20 Steel, 45-345

  21 AMX-M-Equipment-Ventilation

  22 AMX-G-Maintenance Pad

  23 IfcBuildingElementProxy

  24 AMX-P-Equipment-Domestic

  25 Potter

  26 IfcFlowFitting

  27 AMX-M-Ductwork System-Exhaust Air

  28 AMX-M-Ductwork System-Outside Air

  29 AMX-M-Ductwork System-Supply Air

  30 Steel, Paint Finish, Ivory, Matte

  31 Galvanized Steel

  32 Fabric - Woven Glass Fiber - C41000WK Color as Specified

  33 Concrete (Default)

  34 Concrete - Mud Slab

  35 Default

  36 Copper

  37 Mech_supply_30kCFM
     Volume Flow     (m^3/s)    -1.42E+01
     AIR Mass Fraction         1.000

  38 Normal_exhaust_15kCFM
     Volume Flow     (m^3/s)     7.08E+00
     AIR Mass Fraction         1.000

  39 FPC_ElectricalHousing

  40 FPC_PipeHousing

  41 FPC_Wheel

  42 IfcDistributionFlowElement

  43 IfcFlowFitting01

  44 Steel, Carbon

  45 Default01

  46 Sprinkler Bulb

  47 WOOD_CRATE_long

  48 WOOD_CRATE_short

  49 Wood_panel_Inj
     Wood_red_oak Mass Flux (kg/s/m2)   1.21E-02

  50 PU_panel_Inj_TOP
     PU_GM27 Mass Flux (kg/s/m2)   1.57E-02

  51 PU_panel_Inj
     PU_GM27 Mass Flux (kg/s/m2)   1.57E-02

  52 Global15

  53 Fire_exhaust_30kCFM
     Volume Flow     (m^3/s)     1.42E+01
     AIR Mass Fraction         1.000

  54 Global05

  55 Global03

  56 OPEN
     Passive Vent to Atmosphere

  57 MIRROR
     Symmetry Plane

  58 INTERPOLATED

  59 PERIODIC

  60 HVAC

  61 MASSLESS TRACER

  62 DROPLET

  63 VEGETATION

  64 EVACUATION_OUTFLOW
     Normal Velocity (m/s)         0.000

  65 MASSLESS TARGET

  66 PERIODIC WIND

  67 SLICE


 Device Properties

   1 Generic Commercial Link_Generic Commercial Spray
     RTI (m-s)^1/2                   49.7
     C-Factor (m/s)^1/2              0.00
     Activation Temperature (C)      57.2
     Flow Rate (L/min)               0.00
     K-Factor (L/min/bar**0.5)      -1.00
     Particle Class              Water
     Smokeview ID                sprinkler_pendent


 Device Coordinates

     1 Coords:   788.05 -1443.12   123.10, Make: null, ID: 1A-1-01, Quantity: DENSITY, Species: SOOT
     2 Coords:   797.19 -1443.12   123.10, Make: null, ID: 1A-1-02, Quantity: DENSITY, Species: SOOT
     3 Coords:   806.33 -1443.12   123.10, Make: null, ID: 1A-1-03, Quantity: DENSITY, Species: SOOT
     4 Coords:   815.47 -1443.12   123.10, Make: null, ID: 1A-1-04, Quantity: DENSITY, Species: SOOT
     5 Coords:   824.61 -1443.12   123.10, Make: null, ID: 1A-1-05, Quantity: DENSITY, Species: SOOT
     6 Coords:   833.75 -1443.12   123.10, Make: null, ID: 1A-1-06, Quantity: DENSITY, Species: SOOT
     7 Coords:   842.89 -1443.12   123.10, Make: null, ID: 1A-1-07, Quantity: DENSITY, Species: SOOT
     8 Coords:   852.03 -1443.12   123.10, Make: null, ID: 1A-1-08, Quantity: DENSITY, Species: SOOT
     9 Coords:   861.17 -1443.12   123.10, Make: null, ID: 1A-1-09, Quantity: DENSITY, Species: SOOT
    10 Coords:   788.05 -1437.99   124.00, Make: null, ID: 1A-2-01, Quantity: DENSITY, Species: SOOT
    11 Coords:   797.19 -1437.99   124.00, Make: null, ID: 1A-2-02, Quantity: DENSITY, Species: SOOT
    12 Coords:   806.33 -1437.99   124.00, Make: null, ID: 1A-2-03, Quantity: DENSITY, Species: SOOT
    13 Coords:   815.47 -1437.99   124.00, Make: null, ID: 1A-2-04, Quantity: DENSITY, Species: SOOT
    14 Coords:   824.61 -1437.99   124.00, Make: null, ID: 1A-2-05, Quantity: DENSITY, Species: SOOT
    15 Coords:   833.75 -1437.99   124.00, Make: null, ID: 1A-2-06, Quantity: DENSITY, Species: SOOT
    16 Coords:   842.89 -1437.99   124.00, Make: null, ID: 1A-2-07, Quantity: DENSITY, Species: SOOT
    17 Coords:   852.03 -1437.99   124.00, Make: null, ID: 1A-2-08, Quantity: DENSITY, Species: SOOT
    18 Coords:   788.05 -1432.89   123.10, Make: null, ID: 1A-3-01, Quantity: DENSITY, Species: SOOT
    19 Coords:   797.19 -1432.89   123.10, Make: null, ID: 1A-3-02, Quantity: DENSITY, Species: SOOT
    20 Coords:   806.33 -1432.89   123.10, Make: null, ID: 1A-3-03, Quantity: DENSITY, Species: SOOT
    21 Coords:   815.47 -1432.89   123.10, Make: null, ID: 1A-3-04, Quantity: DENSITY, Species: SOOT
    22 Coords:   824.61 -1432.89   123.10, Make: null, ID: 1A-3-05, Quantity: DENSITY, Species: SOOT
    23 Coords:   833.75 -1432.89   123.10, Make: null, ID: 1A-3-06, Quantity: DENSITY, Species: SOOT
    24 Coords:   842.89 -1432.89   123.10, Make: null, ID: 1A-3-07, Quantity: DENSITY, Species: SOOT
    25 Coords:   852.03 -1432.89   123.10, Make: null, ID: 1A-3-08, Quantity: DENSITY, Species: SOOT
    26 Coords:   861.17 -1432.89   123.10, Make: null, ID: 1A-3-09, Quantity: DENSITY, Species: SOOT
    27 Coords:   934.29 -1443.12   123.10, Make: null, ID: 1B-1-01, Quantity: DENSITY, Species: SOOT
    28 Coords:   925.15 -1443.12   123.10, Make: null, ID: 1B-1-02, Quantity: DENSITY, Species: SOOT
    29 Coords:   916.01 -1443.12   123.10, Make: null, ID: 1B-1-03, Quantity: DENSITY, Species: SOOT
    30 Coords:   906.87 -1443.12   123.10, Make: null, ID: 1B-1-04, Quantity: DENSITY, Species: SOOT
    31 Coords:   897.73 -1443.12   123.10, Make: null, ID: 1B-1-05, Quantity: DENSITY, Species: SOOT
    32 Coords:   888.59 -1443.12   123.10, Make: null, ID: 1B-1-06, Quantity: DENSITY, Species: SOOT
    33 Coords:   879.45 -1443.12   123.10, Make: null, ID: 1B-1-07, Quantity: DENSITY, Species: SOOT
    34 Coords:   870.31 -1443.12   123.10, Make: null, ID: 1B-1-08, Quantity: DENSITY, Species: SOOT
    35 Coords:   934.29 -1437.99   124.00, Make: null, ID: 1B-2-01, Quantity: DENSITY, Species: SOOT
    36 Coords:   925.15 -1437.99   124.00, Make: null, ID: 1B-2-02, Quantity: DENSITY, Species: SOOT
    37 Coords:   916.01 -1437.99   124.00, Make: null, ID: 1B-2-03, Quantity: DENSITY, Species: SOOT
    38 Coords:   906.87 -1437.99   124.00, Make: null, ID: 1B-2-04, Quantity: DENSITY, Species: SOOT
    39 Coords:   897.73 -1437.99   124.00, Make: null, ID: 1B-2-05, Quantity: DENSITY, Species: SOOT
    40 Coords:   888.59 -1437.99   124.00, Make: null, ID: 1B-2-06, Quantity: DENSITY, Species: SOOT
    41 Coords:   879.45 -1437.99   124.00, Make: null, ID: 1B-2-07, Quantity: DENSITY, Species: SOOT
    42 Coords:   870.31 -1437.99   124.00, Make: null, ID: 1B-2-08, Quantity: DENSITY, Species: SOOT
    43 Coords:   861.17 -1437.99   124.00, Make: null, ID: 1B-2-09, Quantity: DENSITY, Species: SOOT
    44 Coords:   934.29 -1432.89   123.10, Make: null, ID: 1B-3-01, Quantity: DENSITY, Species: SOOT
    45 Coords:   925.15 -1432.89   123.10, Make: null, ID: 1B-3-02, Quantity: DENSITY, Species: SOOT
    46 Coords:   916.01 -1432.89   123.10, Make: null, ID: 1B-3-03, Quantity: DENSITY, Species: SOOT
    47 Coords:   906.87 -1432.89   123.10, Make: null, ID: 1B-3-04, Quantity: DENSITY, Species: SOOT
    48 Coords:   897.73 -1432.89   123.10, Make: null, ID: 1B-3-05, Quantity: DENSITY, Species: SOOT
    49 Coords:   888.59 -1432.89   123.10, Make: null, ID: 1B-3-06, Quantity: DENSITY, Species: SOOT
    50 Coords:   879.45 -1432.89   123.10, Make: null, ID: 1B-3-07, Quantity: DENSITY, Species: SOOT
    51 Coords:   870.31 -1432.89   123.10, Make: null, ID: 1B-3-08, Quantity: DENSITY, Species: SOOT
    52 Coords:   785.95 -1445.95   116.28, Make: null, ID: ASP-1A, Quantity: ASPIRATION
    53 Coords:   935.51 -1446.26   115.96, Make: null, ID: ASP-1B, Quantity: ASPIRATION
    54 Coords:   788.21 -1430.43    97.69, Make: null, ID: FLOW_Hole_both, Quantity: VOLUME FLOW
    55 Coords:   788.21 -1430.43    97.69, Make: null, ID: FLOW_Hole_in, Quantity: VOLUME FLOW +
    56 Coords:   788.21 -1430.43    97.69, Make: null, ID: outin01, Quantity: VOLUME FLOW -
    57 Coords:   860.22 -1429.59   114.91, Make: Generic Commercial Link_Generic Commercial Spray, ID: SPRK_1, Quantity: SPRINKLER LINK TEMPERATURE
    58 Coords:   860.22 -1433.70   114.91, Make: Generic Commercial Link_Generic Commercial Spray, ID: SPRK_2, Quantity: SPRINKLER LINK TEMPERATURE
    59 Coords:   860.22 -1437.82   114.91, Make: Generic Commercial Link_Generic Commercial Spray, ID: SPRK_3, Quantity: SPRINKLER LINK TEMPERATURE
    60 Coords:   860.22 -1441.93   114.91, Make: Generic Commercial Link_Generic Commercial Spray, ID: SPRK_4, Quantity: SPRINKLER LINK TEMPERATURE
    61 Coords:   860.22 -1446.05   114.91, Make: Generic Commercial Link_Generic Commercial Spray, ID: SPRK_5, Quantity: SPRINKLER LINK TEMPERATURE
    62 Coords:   862.51 -1430.81   122.80, Make: Generic Commercial Link_Generic Commercial Spray, ID: SPRK, Quantity: SPRINKLER LINK TEMPERATURE
    63 Coords:   866.47 -1430.81   122.80, Make: Generic Commercial Link_Generic Commercial Spray, ID: SPRK01, Quantity: SPRINKLER LINK TEMPERATURE
    64 Coords:   870.43 -1430.81   122.80, Make: Generic Commercial Link_Generic Commercial Spray, ID: SPRK02, Quantity: SPRINKLER LINK TEMPERATURE
    65 Coords:   874.39 -1430.81   122.80, Make: Generic Commercial Link_Generic Commercial Spray, ID: SPRK03, Quantity: SPRINKLER LINK TEMPERATURE
    66 Coords:   858.55 -1430.81   122.80, Make: Generic Commercial Link_Generic Commercial Spray, ID: SPRK04, Quantity: SPRINKLER LINK TEMPERATURE
    67 Coords:   854.58 -1430.81   122.80, Make: Generic Commercial Link_Generic Commercial Spray, ID: SPRK05, Quantity: SPRINKLER LINK TEMPERATURE
    68 Coords:   850.62 -1430.81   122.80, Make: Generic Commercial Link_Generic Commercial Spray, ID: SPRK06, Quantity: SPRINKLER LINK TEMPERATURE
    69 Coords:   862.51 -1433.55   124.13, Make: Generic Commercial Link_Generic Commercial Spray, ID: SPRK07, Quantity: SPRINKLER LINK TEMPERATURE
    70 Coords:   866.47 -1433.55   124.13, Make: Generic Commercial Link_Generic Commercial Spray, ID: SPRK08, Quantity: SPRINKLER LINK TEMPERATURE
    71 Coords:   870.43 -1433.55   124.13, Make: Generic Commercial Link_Generic Commercial Spray, ID: SPRK09, Quantity: SPRINKLER LINK TEMPERATURE
    72 Coords:   874.39 -1433.55   124.13, Make: Generic Commercial Link_Generic Commercial Spray, ID: SPRK10, Quantity: SPRINKLER LINK TEMPERATURE
    73 Coords:   858.55 -1433.55   124.13, Make: Generic Commercial Link_Generic Commercial Spray, ID: SPRK11, Quantity: SPRINKLER LINK TEMPERATURE
    74 Coords:   854.58 -1433.55   124.13, Make: Generic Commercial Link_Generic Commercial Spray, ID: SPRK12, Quantity: SPRINKLER LINK TEMPERATURE
    75 Coords:   850.62 -1433.55   124.13, Make: Generic Commercial Link_Generic Commercial Spray, ID: SPRK13, Quantity: SPRINKLER LINK TEMPERATURE
    76 Coords:   862.46 -1436.43   124.89, Make: Generic Commercial Link_Generic Commercial Spray, ID: SPRK14, Quantity: SPRINKLER LINK TEMPERATURE
    77 Coords:   866.42 -1436.48   124.89, Make: Generic Commercial Link_Generic Commercial Spray, ID: SPRK15, Quantity: SPRINKLER LINK TEMPERATURE
    78 Coords:   870.39 -1436.43   124.89, Make: Generic Commercial Link_Generic Commercial Spray, ID: SPRK16, Quantity: SPRINKLER LINK TEMPERATURE
    79 Coords:   874.35 -1436.43   124.89, Make: Generic Commercial Link_Generic Commercial Spray, ID: SPRK17, Quantity: SPRINKLER LINK TEMPERATURE
    80 Coords:   858.50 -1436.43   124.89, Make: Generic Commercial Link_Generic Commercial Spray, ID: SPRK18, Quantity: SPRINKLER LINK TEMPERATURE
    81 Coords:   854.54 -1436.43   124.89, Make: Generic Commercial Link_Generic Commercial Spray, ID: SPRK19, Quantity: SPRINKLER LINK TEMPERATURE
    82 Coords:   850.58 -1436.43   124.89, Make: Generic Commercial Link_Generic Commercial Spray, ID: SPRK20, Quantity: SPRINKLER LINK TEMPERATURE
    83 Coords:   855.57 -1435.99    99.14, Make: null, ID: Incident_HF_01, Quantity: INCIDENT HEAT FLUX
    84 Coords:   855.57 -1442.09    99.14, Make: null, ID: Incident_HF_02, Quantity: INCIDENT HEAT FLUX
    85 Coords:   861.90 -1447.65    99.14, Make: null, ID: Incident_HF_03, Quantity: INCIDENT HEAT FLUX
    86 Coords:   868.07 -1437.51   100.50, Make: null, ID: Incident_HF_04, Quantity: INCIDENT HEAT FLUX
    87 Coords:   861.90 -1429.51    99.14, Make: null, ID: Incident_HF_05, Quantity: INCIDENT HEAT FLUX
    88 Coords:   772.06 -1439.27   122.38, Make: null, ID: FLOW_at_air_supply_damper, Quantity: VOLUME FLOW +
    89 Coords:   785.17 -1448.10    96.93, Make: null, ID: TIMER->OUT, Quantity: TIME
    90 Coords:   785.17 -1448.10    96.93, Make: null, ID: TIMER->OUT2, Quantity: TIME
    91 Coords:   785.17 -1448.10    96.93, Make: null, ID: TIMER->OUT3, Quantity: TIME
    92 Coords:   785.17 -1448.10    96.93, Make: null, ID: TIMER->OUT4, Quantity: TIME
    93 Coords:   785.17 -1448.10    96.93, Make: null, ID: TIMER->OUT5, Quantity: TIME
    94 Coords:   785.17 -1448.10    96.93, Make: null, ID: TIMER->OUT6, Quantity: TIME
    95 Coords:   785.17 -1448.10    96.93, Make: null, ID: TIMER->OUT7, Quantity: TIME
    96 Coords:   785.17 -1448.10    96.93, Make: null, ID: TIMER->OUT8, Quantity: TIME
    97 Coords:   785.17 -1448.10    96.93, Make: null, ID: TIMER->OUT9, Quantity: TIME
    98 Coords:   785.17 -1448.10    96.93, Make: null, ID: TIMER->OUT10, Quantity: TIME
    99 Coords:   785.17 -1448.10    96.93, Make: null, ID: TIMER->OUT11, Quantity: TIME
   100 Coords:   785.17 -1448.10    96.93, Make: null, ID: TIMER->OUT12, Quantity: TIME
   101 Coords:   785.17 -1448.10    96.93, Make: null, ID: TIMER->OUT13, Quantity: TIME
   102 Coords:   785.17 -1448.10    96.93, Make: null, ID: TIMER->OUT14, Quantity: TIME
   103 Coords:   785.17 -1448.10    96.93, Make: null, ID: TIMER->OUT15, Quantity: TIME
   104 Coords:   785.17 -1448.10    96.93, Make: null, ID: TIMER->OUT16, Quantity: TIME
   105 Coords:   785.17 -1448.10    96.93, Make: null, ID: TIMER->OUT17, Quantity: TIME
   106 Coords:   785.17 -1448.10    96.93, Make: null, ID: TIMER->OUT18, Quantity: TIME
   107 Coords:   785.17 -1448.10    96.93, Make: null, ID: TIMER->OUT19, Quantity: TIME
   108 Coords:   785.17 -1448.10    96.93, Make: null, ID: TIMER->OUT20, Quantity: TIME
   109 Coords:   785.17 -1448.10    96.93, Make: null, ID: TIMER->OUT21, Quantity: TIME
   110 Coords:   785.17 -1448.10    96.93, Make: null, ID: TIMER->OUT22, Quantity: TIME
   111 Coords:   785.17 -1448.10    96.93, Make: null, ID: TIMER->OUT23, Quantity: TIME
   112 Coords:   785.17 -1448.10    96.93, Make: null, ID: TIMER->OUT24, Quantity: TIME
   113 Coords:   785.17 -1448.10    96.93, Make: null, ID: TIMER->OUT25, Quantity: TIME
   114 Coords:   785.17 -1448.10    96.93, Make: null, ID: TIMER->OUT26, Quantity: TIME
   115 Coords:   785.17 -1448.10    96.93, Make: null, ID: TIMER->OUT27, Quantity: TIME
   116 Coords:   785.17 -1448.10    96.93, Make: null, ID: TIMER->OUT28, Quantity: TIME
   117 Coords:   785.17 -1448.10    96.93, Make: null, ID: TIMER->OUT29, Quantity: TIME
   118 Coords:   785.17 -1448.10    96.93, Make: null, ID: TIMER->OUT30, Quantity: TIME
   119 Coords:   785.17 -1448.10    96.93, Make: null, ID: TIMER->OUT31, Quantity: TIME
   120 Coords:   785.17 -1448.10    96.93, Make: null, ID: TIMER->OUT32, Quantity: TIME
   121 Coords:   785.17 -1448.10    96.93, Make: null, ID: TIMER->OUT33, Quantity: TIME
   122 Coords:   785.17 -1448.10    96.93, Make: null, ID: TIMER->OUT34, Quantity: TIME
   123 Coords:   785.17 -1448.10    96.93, Make: null, ID: TIMER->OUT35, Quantity: TIME
   124 Coords:   785.17 -1448.10    96.93, Make: null, ID: TIMER->OUT36, Quantity: TIME
   125 Coords:   785.17 -1448.10    96.93, Make: null, ID: TIMER->OUT37, Quantity: TIME
   126 Coords:   785.17 -1448.10    96.93, Make: null, ID: TIMER->OUT38, Quantity: TIME
   127 Coords:   785.17 -1448.10    96.93, Make: null, ID: TIMER->OUT39, Quantity: TIME
   128 Coords:   785.17 -1448.10    96.93, Make: null, ID: TIMER->OUT40, Quantity: TIME
   129 Coords:   785.17 -1448.10    96.93, Make: null, ID: TIMER->OUT41, Quantity: TIME
   130 Coords:   785.17 -1448.10    96.93, Make: null, ID: TIMER->OUT42, Quantity: TIME
   131 Coords:   785.17 -1448.10    96.93, Make: null, ID: TIMER->OUT43, Quantity: TIME
   132 Coords:   785.17 -1448.10    96.93, Make: null, ID: TIMER->OUT44, Quantity: TIME
   133 Coords:   785.17 -1448.10    96.93, Make: null, ID: TIMER->OUT45, Quantity: TIME
   134 Coords:   785.17 -1448.10    96.93, Make: null, ID: TIMER->OUT46, Quantity: TIME
   135 Coords:   785.17 -1448.10    96.93, Make: null, ID: TIMER->OUT47, Quantity: TIME
   136 Coords:   785.17 -1448.10    96.93, Make: null, ID: TIMER->OUT48, Quantity: TIME
   137 Coords:   785.17 -1448.10    96.93, Make: null, ID: TIMER->OUT49, Quantity: TIME
   138 Coords:   785.17 -1448.10    96.93, Make: null, ID: TIMER->OUT50, Quantity: TIME
   139 Coords:   785.17 -1448.10    96.93, Make: null, ID: TIMER->OUT51, Quantity: TIME
   140 Coords:   785.17 -1448.10    96.93, Make: null, ID: TIMER->OUT52, Quantity: TIME
   141 Coords:   785.17 -1448.10    96.93, Make: null, ID: TIMER->OUT53, Quantity: TIME
   142 Coords:   785.17 -1448.10    96.93, Make: null, ID: TIMER->OUT54, Quantity: TIME
   143 Coords:   785.17 -1448.10    96.93, Make: null, ID: TIMER->OUT55, Quantity: TIME
   144 Coords:   785.17 -1448.10    96.93, Make: null, ID: TIMER->OUT56, Quantity: TIME
   145 Coords:   785.17 -1448.10    96.93, Make: null, ID: TIMER->OUT57, Quantity: TIME
   146 Coords:   785.17 -1448.10    96.93, Make: null, ID: TIMER->OUT58, Quantity: TIME
   147 Coords:   785.17 -1448.10    96.93, Make: null, ID: TIMER->OUT59, Quantity: TIME
   148 Coords:   785.17 -1448.10    96.93, Make: null, ID: TIMER->OUT60, Quantity: TIME
   149 Coords:   785.17 -1448.10    96.93, Make: null, ID: TIMER->OUT61, Quantity: TIME
   150 Coords:   785.17 -1448.10    96.93, Make: null, ID: TIMER->OUT62, Quantity: TIME
   151 Coords:   785.17 -1448.10    96.93, Make: null, ID: TIMER->OUT63, Quantity: TIME
   152 Coords:   785.17 -1448.10    96.93, Make: null, ID: TIMER->OUT64, Quantity: TIME
   153 Coords:   785.17 -1448.10    96.93, Make: null, ID: TIMER->OUT65, Quantity: TIME
   154 Coords:   785.17 -1448.10    96.93, Make: null, ID: TIMER->OUT66, Quantity: TIME
   155 Coords:   785.17 -1448.10    96.93, Make: null, ID: TIMER->OUT67, Quantity: TIME
   156 Coords:   785.17 -1448.10    96.93, Make: null, ID: TIMER->OUT68, Quantity: TIME
   157 Coords:   785.17 -1448.10    96.93, Make: null, ID: TIMER->OUT69, Quantity: TIME
   158 Coords:   785.17 -1448.10    96.93, Make: null, ID: TIMER->OUT70, Quantity: TIME
   159 Coords:   785.17 -1448.10    96.93, Make: null, ID: TIMER->OUT71, Quantity: TIME
   160 Coords:   785.17 -1448.10    96.93, Make: null, ID: TIMER->OUT72, Quantity: TIME
   161 Coords:   785.17 -1448.10    96.93, Make: null, ID: TIMER->OUT73, Quantity: TIME
   162 Coords:   785.17 -1448.10    96.93, Make: null, ID: TIMER->OUT74, Quantity: TIME


 Slice File Information, Mesh     1

   Sampling Interval (s)             1.350

   1 Nodes:   0 227  53  53   0  57, Quantity: VELOCITY
   2 Nodes:   0 227  53  53   0  57, Quantity: U-VELOCITY
   3 Nodes:   0 227  53  53   0  57, Quantity: V-VELOCITY
   4 Nodes:   0 227  53  53   0  57, Quantity: W-VELOCITY
   5 Nodes:   0 227   0  68   8   8, Quantity: SOOT VISIBILITY
   6 Nodes:   0 227   0  68   8   8, Quantity: TEMPERATURE
   7 Nodes:   0 227   0  68   8   8, Quantity: CARBON MONOXIDE VOLUME FRACTION


 Boundary File Information

   Sampling Interval (s)             2.700

   1 Quantity: INCIDENT HEAT FLUX


 Radiation Model Information

   Number of control angles  208
   Time step increment         2
   Angle increment             4
   Theta band N_phi   Solid angle
     1:        4     0.054
     2:       12     0.052
     3:       16     0.062
     4:       20     0.065
     5:       24     0.063
     6:       28     0.058
     7:       28     0.058
     8:       24     0.063
     9:       20     0.065
    10:       16     0.062
    11:       12     0.052
    12:        4     0.054
   Using gray gas absorption.
   Mean beam length  0.100 m
 
 

 Run Time Diagnostics

       Time Step       1   March 16, 2020  17:41:50
       Step Size:    0.448E-01 s, Total Time: -149.95522 s
       Pressure Iterations:      1
       Maximum Velocity Error:  0.74E-01 on Mesh   3 at (   2 103  52)
       Maximum Pressure Error:  0.21E-01 on Mesh   3 at (   2 103  58)
       ---------------------------------------------------------------
       Mesh    1
       Max CFL number:  0.30E-02 at (  15,  28,   3)
       Max divergence:  0.18E-05 at (  15,  28,   3)
       Min divergence: -0.44E-05 at ( 227,   1,   3)
       Max VN number:   0.23E-02 at (  90,  42,  22)
       Mesh    2
       Max CFL number:  0.29E-02 at (  51,  36,   4)
       Max divergence:  0.14E-05 at (  23,  38,   7)
       Min divergence: -0.18E-05 at (  10,  28,  55)
       Max VN number:   0.21E-02 at ( 127,  21,  24)
       Mesh    3
       Max CFL number:  0.36E-01 at (   3,  96,  52)
       Max divergence:  0.72E-05 at (   3, 103,  58)
       Min divergence: -0.97E-05 at (  11, 125,  48)
       Max VN number:   0.44E-02 at (  60,  89,  40)
       Mesh    4
       Max CFL number:  0.58E-02 at (  77,   3,   2)
       Max divergence:  0.14E-05 at (   4,  88,  31)
       Min divergence: -0.44E-05 at (  90, 125,  48)
       Max VN number:   0.46E-02 at (  38,  28,  27)
       Mesh    5
       Max CFL number:  0.59E-02 at (  85,  43,  67)
       Max divergence:  0.13E-05 at (  66,  29,  11)
       Min divergence: -0.47E-05 at (  81, 126,  48)
       Max VN number:   0.49E-02 at (  68,  36,  13)
       Mesh    6
       Max CFL number:  0.57E-02 at (  23, 121,  73)
       Max divergence:  0.15E-05 at (   8,  67,  71)
       Min divergence: -0.47E-05 at (  12, 126,  48)
       Max VN number:   0.44E-02 at (  79, 105,  37)
       Mesh    7
       Max CFL number:  0.58E-02 at (  70,  33,  43)
       Max divergence:  0.14E-05 at (  78,  66,  59)
       Min divergence: -0.84E-05 at (   1, 132,  42)
       Max VN number:   0.48E-02 at (  30,  49,  12)
       Mesh    8
       Max CFL number:  0.11E-01 at (  70,  53,  11)
       Max divergence:  0.21E-05 at (  79,  19,   6)
       Min divergence: -0.18E-04 at (   1, 132,   7)
       Max VN number:   0.47E-02 at (  10,  89,  51)
       Mesh    9
       Max CFL number:  0.59E-02 at (  69,  37,  65)
       Max divergence:  0.13E-05 at (  51,  12,  72)
       Min divergence: -0.41E-05 at (  99,   8,  48)
       Max VN number:   0.46E-02 at (  31, 126,  41)
       Mesh   10
       Max CFL number:  0.59E-02 at (  28,  40,  23)
       Max divergence:  0.16E-05 at (  21,  58,   2)
       Min divergence: -0.43E-05 at (  58,   8,  48)
       Max VN number:   0.48E-02 at (  51,  33,  55)
       Mesh   11
       Max CFL number:  0.59E-02 at (  72,  44,   3)
       Max divergence:  0.16E-05 at (  52, 113,   2)
       Min divergence: -0.43E-05 at (  55,   8,  48)
       Max VN number:   0.45E-02 at (  53,  94,  11)
       Mesh   12
       Max CFL number:  0.57E-02 at (  40,  46,   8)
       Max divergence:  0.16E-05 at (  80,  65,   2)
       Min divergence: -0.96E-05 at (   1,   2,   1)
       Max VN number:   0.46E-02 at ( 103, 114,  16)
       Mesh   13
       Max CFL number:  0.59E-02 at (  45,  28,   5)
       Max divergence:  0.17E-05 at (  55,  90,   2)
       Min divergence: -0.65E-05 at ( 110,   9,  45)
       Max VN number:   0.47E-02 at (  14,  99,  10)
       Mesh   14
       Max CFL number:  0.61E-02 at (  55,  74,  45)
       Max divergence:  0.16E-05 at (  43,  58,  62)
       Min divergence: -0.22E-04 at (   1,  51,  13)
       Max VN number:   0.45E-02 at (  15,  12,  53)
       Mesh   15
       Max CFL number:  0.57E-02 at (  31,   9,  49)
       Max divergence:  0.17E-05 at (  56,  27,   1)
       Min divergence: -0.31E-04 at (  13,   7,   1)
       Max VN number:   0.44E-02 at (  47,  35,   3)
       Mesh   16
       Max CFL number:  0.60E-02 at (  18,  28,  67)
       Max divergence:  0.14E-05 at (  22,  14,  40)
       Min divergence: -0.63E-05 at (  42,  15,  26)
       Max VN number:   0.44E-02 at (  22,  14,  40)
       Mesh   17
       Max CFL number:  0.56E-02 at (  32,  37,  32)
       Max divergence:  0.15E-05 at (  41,   4,   1)
       Min divergence: -0.10E-04 at (   3,   4,  32)
       Max VN number:   0.43E-02 at (  15,  29,  21)
       Mesh   18
       Max CFL number:  0.57E-02 at (   1,  87,  12)
       Max divergence:  0.13E-05 at (   7,  16,  18)
       Min divergence: -0.51E-05 at (   3,   8,  37)
       Max VN number:   0.45E-02 at (  10, 100,  33)
       Mesh   19
       Max CFL number:  0.57E-02 at (   7,  23,   8)
       Max divergence:  0.15E-05 at (  34,  43,   3)
       Min divergence: -0.19E-05 at (   3,  57,  32)
       Max VN number:   0.45E-02 at (  25,  49,   4)
       Mesh   20
       Max CFL number:  0.24E-02 at (   5,  12,  14)
       Max divergence:  0.81E-06 at (  17,   7,   2)
       Min divergence: -0.84E-06 at (   3,   4,   7)
       Max VN number:   0.18E-02 at (   2,   9,  14)
       Mesh   21
       Max CFL number:  0.28E-02 at (  46,  12,  13)
       Max divergence:  0.34E-04 at (  39,  19,  14)
       Min divergence: -0.14E-04 at (  85,  36,   1)
       Max VN number:   0.20E-02 at (  28,  32,  18)
 
       Time Step       2   March 16, 2020  17:42:22
       Step Size:    0.448E-01 s, Total Time: -149.91044 s
       Pressure Iterations:      1
       Maximum Velocity Error:  0.84E-01 on Mesh   3 at (   2 104  52)
       Maximum Pressure Error:  0.39E-01 on Mesh   3 at (   2 104  52)
       ---------------------------------------------------------------
       Mesh    1
       Max CFL number:  0.30E-02 at (  15,  28,   3)
       Max divergence:  0.18E-05 at (  15,  28,   3)
       Min divergence: -0.27E-05 at ( 227,   1,   4)
       Max VN number:   0.23E-02 at (  90,  42,  22)
       Mesh    2
       Max CFL number:  0.30E-02 at ( 137,  60,   8)
       Max divergence:  0.13E-05 at ( 204,  46,  21)
       Min divergence: -0.14E-05 at (   3,  47,  55)
       Max VN number:   0.21E-02 at ( 127,  21,  24)
       Mesh    3
       Max CFL number:  0.81E-01 at (   3,  96,  52)
       Max divergence:  0.17E-04 at (   3, 103,  58)
       Min divergence: -0.16E-04 at (   3, 105,  45)
       Max VN number:   0.10E-01 at (   3, 110,  45)
       Mesh    4
       Max CFL number:  0.60E-02 at (  77,   3,   2)
       Max divergence:  0.14E-05 at (  26,  67,  71)
       Min divergence: -0.30E-05 at (  90, 125,  48)
       Max VN number:   0.46E-02 at (  38,  28,  27)
       Mesh    5
       Max CFL number:  0.59E-02 at (  85,  43,  67)
       Max divergence:  0.13E-05 at (  66,  29,  11)
       Min divergence: -0.34E-05 at (  81, 126,  48)
       Max VN number:   0.49E-02 at (  68,  36,  13)
       Mesh    6
       Max CFL number:  0.58E-02 at (  65, 131,   7)
       Max divergence:  0.16E-05 at (   8,  67,  71)
       Min divergence: -0.34E-05 at (  12, 126,  48)
       Max VN number:   0.44E-02 at (  79, 105,  37)
       Mesh    7
       Max CFL number:  0.59E-02 at (  71,  75,  70)
       Max divergence:  0.14E-05 at (  78,  66,  59)
       Min divergence: -0.51E-05 at (   1, 132,  42)
       Max VN number:   0.47E-02 at (  30,  49,  12)
       Mesh    8
       Max CFL number:  0.20E-01 at (  79, 102,   8)
       Max divergence:  0.34E-05 at (  79,  19,   6)
       Min divergence: -0.12E-04 at (   1, 132,   4)
       Max VN number:   0.47E-02 at (  10,  89,  51)
       Mesh    9
       Max CFL number:  0.60E-02 at (  69,  37,  65)
       Max divergence:  0.13E-05 at (  51,  12,  72)
       Min divergence: -0.32E-05 at ( 100,   8,  48)
       Max VN number:   0.46E-02 at (  31, 126,  41)
       Mesh   10
       Max CFL number:  0.61E-02 at (  28,  40,  23)
       Max divergence:  0.17E-05 at (  21,  58,   2)
       Min divergence: -0.33E-05 at ( 108,   8,  48)
       Max VN number:   0.47E-02 at (  51,  33,  55)
       Mesh   11
       Max CFL number:  0.60E-02 at (  62, 123,   2)
       Max divergence:  0.17E-05 at (  52, 113,   2)
       Min divergence: -0.33E-05 at (   1,   8,  48)
       Max VN number:   0.45E-02 at (  53,  94,  11)
       Mesh   12
       Max CFL number:  0.58E-02 at (  21, 103,  49)
       Max divergence:  0.16E-05 at (  73,  68,   2)
       Min divergence: -0.56E-05 at (   1,   2,   1)
       Max VN number:   0.46E-02 at ( 103, 114,  16)
       Mesh   13
       Max CFL number:  0.60E-02 at (  89, 133,  21)
       Max divergence:  0.17E-05 at (  55,  90,   2)
       Min divergence: -0.50E-05 at ( 110,   8,  48)
       Max VN number:   0.47E-02 at (  14,  99,  10)
       Mesh   14
       Max CFL number:  0.83E-02 at (  56,  65,  53)
       Max divergence:  0.16E-05 at (  43,  58,  62)
       Min divergence: -0.13E-04 at (   1,  51,  13)
       Max VN number:   0.45E-02 at (  15,  12,  53)
       Mesh   15
       Max CFL number:  0.59E-02 at (   9,   6,  34)
       Max divergence:  0.16E-05 at (  56,  27,   1)
       Min divergence: -0.19E-04 at (  13,   7,   1)
       Max VN number:   0.44E-02 at (  47,  35,   3)
       Mesh   16
       Max CFL number:  0.62E-02 at (  18,  28,  68)
       Max divergence:  0.14E-05 at (  22,  14,  40)
       Min divergence: -0.39E-05 at (  42,  15,  26)
       Max VN number:   0.44E-02 at (  22,  14,  40)
       Mesh   17
       Max CFL number:  0.56E-02 at (  32,  37,  32)
       Max divergence:  0.15E-05 at (  41,   4,   1)
       Min divergence: -0.58E-05 at (   3,   4,  32)
       Max VN number:   0.43E-02 at (  15,  29,  21)
       Mesh   18
       Max CFL number:  0.59E-02 at (  32,  54,  39)
       Max divergence:  0.13E-05 at (   7,  16,  18)
       Min divergence: -0.29E-05 at (   3,   8,  37)
       Max VN number:   0.45E-02 at (  10, 100,  33)
       Mesh   19
       Max CFL number:  0.57E-02 at (   7,  23,   8)
       Max divergence:  0.15E-05 at (  34,  43,   3)
       Min divergence: -0.16E-05 at (  10,  24,  38)
       Max VN number:   0.44E-02 at (  25,  49,   4)
       Mesh   20
       Max CFL number:  0.24E-02 at (   2,   8,   9)
       Max divergence:  0.78E-06 at (  17,   7,   2)
       Min divergence: -0.84E-06 at (   3,   4,   7)
       Max VN number:   0.18E-02 at (   2,   9,  14)
       Mesh   21
       Max CFL number:  0.29E-02 at (  46,  12,  13)
       Max divergence:  0.33E-04 at (  39,  19,  14)
       Min divergence: -0.42E-04 at (  39,  17,   1)
       Max VN number:   0.20E-02 at (  28,  32,  18)
 
       Time Step       3   March 16, 2020  17:42:37
       Step Size:    0.448E-01 s, Total Time: -149.86566 s
       Pressure Iterations:      2
       Maximum Velocity Error:  0.83E-01 on Mesh   3 at (   0 106  60)
       Maximum Pressure Error:  0.15E-01 on Mesh   3 at (   2 104  52)
       ---------------------------------------------------------------
       Mesh    1
       Max CFL number:  0.30E-02 at (  15,  28,   3)
       Max divergence:  0.18E-05 at (  15,  28,   3)
       Min divergence: -0.25E-05 at ( 227,   1,   4)
       Max VN number:   0.23E-02 at (  90,  42,  22)
       Mesh    2
       Max CFL number:  0.30E-02 at ( 137,  60,   8)
       Max divergence:  0.13E-05 at ( 204,  46,  21)
       Min divergence: -0.13E-05 at (   3,  47,  55)
       Max VN number:   0.21E-02 at ( 127,  21,  24)
       Mesh    3
       Max CFL number:  0.14E+00 at (   3,  97,  52)
       Max divergence:  0.31E-04 at (   3, 103,  58)
       Min divergence: -0.29E-04 at (   3, 105,  45)
       Max VN number:   0.41E-01 at (   3, 110,  45)
       Mesh    4
       Max CFL number:  0.60E-02 at (  77,   3,   2)
       Max divergence:  0.14E-05 at (  26,  67,  71)
       Min divergence: -0.28E-05 at (  90, 125,  48)
       Max VN number:   0.46E-02 at (  38,  28,  27)
       Mesh    5
       Max CFL number:  0.59E-02 at (  85,  43,  67)
       Max divergence:  0.13E-05 at (  66,  29,  11)
       Min divergence: -0.32E-05 at (  81, 126,  48)
       Max VN number:   0.49E-02 at (  68,  36,  13)
       Mesh    6
       Max CFL number:  0.57E-02 at (  23, 121,  73)
       Max divergence:  0.15E-05 at (   8,  67,  71)
       Min divergence: -0.32E-05 at (  12, 126,  48)
       Max VN number:   0.44E-02 at (  79, 105,  37)
       Mesh    7
       Max CFL number:  0.58E-02 at (  71,  75,  70)
       Max divergence:  0.14E-05 at (  78,  66,  59)
       Min divergence: -0.46E-05 at (   1, 132,  42)
       Max VN number:   0.47E-02 at (  30,  49,  12)
       Mesh    8
       Max CFL number:  0.31E-01 at (  70,  30,   7)
       Max divergence:  0.48E-05 at (  79,  19,   6)
       Min divergence: -0.11E-04 at (   1, 132,   4)
       Max VN number:   0.65E-02 at (  70,   4,   7)
       Mesh    9
       Max CFL number:  0.59E-02 at (  69,  37,  65)
       Max divergence:  0.13E-05 at (  51,  12,  72)
       Min divergence: -0.30E-05 at ( 100,   8,  48)
       Max VN number:   0.46E-02 at (  31, 126,  41)
       Mesh   10
       Max CFL number:  0.61E-02 at (  28,  40,  23)
       Max divergence:  0.17E-05 at (  21,  58,   2)
       Min divergence: -0.31E-05 at ( 108,   8,  48)
       Max VN number:   0.47E-02 at (  51,  33,  55)
       Mesh   11
       Max CFL number:  0.59E-02 at (  72,  44,   3)
       Max divergence:  0.17E-05 at (  52, 113,   2)
       Min divergence: -0.31E-05 at (   1,   8,  48)
       Max VN number:   0.45E-02 at (  53,  94,  11)
       Mesh   12
       Max CFL number:  0.57E-02 at (  51,  72,   5)
       Max divergence:  0.17E-05 at (  73,  68,   2)
       Min divergence: -0.50E-05 at (   1,   2,   1)
       Max VN number:   0.46E-02 at ( 103, 114,  16)
       Mesh   13
       Max CFL number:  0.60E-02 at (  89, 133,  21)
       Max divergence:  0.17E-05 at (  55,  90,   2)
       Min divergence: -0.48E-05 at ( 110,   8,  48)
       Max VN number:   0.47E-02 at (  14,  99,  10)
       Mesh   14
       Max CFL number:  0.23E-01 at (  56,  66,  53)
       Max divergence:  0.19E-05 at (  55,  66,  37)
       Min divergence: -0.12E-04 at (   1,  51,  13)
       Max VN number:   0.45E-02 at (  15,  12,  53)
       Mesh   15
       Max CFL number:  0.58E-02 at (   9,   6,  34)
       Max divergence:  0.16E-05 at (  56,  27,   1)
       Min divergence: -0.17E-04 at (  13,   7,   1)
       Max VN number:   0.44E-02 at (  47,  35,   3)
       Mesh   16
       Max CFL number:  0.61E-02 at (  18,  28,  68)
       Max divergence:  0.14E-05 at (  22,  14,  40)
       Min divergence: -0.36E-05 at (  42,  15,  26)
       Max VN number:   0.44E-02 at (  22,  14,  40)
       Mesh   17
       Max CFL number:  0.56E-02 at (  32,  37,  32)
       Max divergence:  0.15E-05 at (  41,   4,   1)
       Min divergence: -0.51E-05 at (   3,   4,  32)
       Max VN number:   0.43E-02 at (  15,  29,  21)
       Mesh   18
       Max CFL number:  0.58E-02 at (  32,  54,  39)
       Max divergence:  0.13E-05 at (   7,  16,  18)
       Min divergence: -0.26E-05 at (   3,   8,  37)
       Max VN number:   0.45E-02 at (  10, 100,  33)
       Mesh   19
       Max CFL number:  0.57E-02 at (   7,  23,   8)
       Max divergence:  0.15E-05 at (  34,  43,   3)
       Min divergence: -0.16E-05 at (  21,  30,  39)
       Max VN number:   0.44E-02 at (  25,  49,   4)
       Mesh   20
       Max CFL number:  0.24E-02 at (   2,   8,   9)
       Max divergence:  0.80E-06 at (  17,   7,   2)
       Min divergence: -0.84E-06 at (   3,   4,   7)
       Max VN number:   0.18E-02 at (   2,   9,  14)
       Mesh   21
       Max CFL number:  0.29E-02 at (  46,  12,  13)
       Max divergence:  0.32E-04 at (  39,  19,  14)
       Min divergence: -0.25E-04 at (  39,  17,   1)
       Max VN number:   0.20E-02 at (  81,  29,  21)
 
       Time Step       4   March 16, 2020  17:43:07
       Step Size:    0.448E-01 s, Total Time: -149.82088 s
       Pressure Iterations:      2
       Maximum Velocity Error:  0.86E-01 on Mesh   3 at (   0 107  60)
       Maximum Pressure Error:  0.88E-01 on Mesh   3 at (   2 110  58)
       ---------------------------------------------------------------
       Mesh    1
       Max CFL number:  0.30E-02 at (  15,  28,   3)
       Max divergence:  0.18E-05 at (  15,  28,   3)
       Min divergence: -0.25E-05 at ( 227,   1,   4)
       Max VN number:   0.23E-02 at (  90,  42,  22)
       Mesh    2
       Max CFL number:  0.30E-02 at (  51,  36,   4)
       Max divergence:  0.13E-05 at ( 204,  46,  21)
       Min divergence: -0.13E-05 at (   3,  47,  55)
       Max VN number:   0.21E-02 at ( 127,  21,  24)
       Mesh    3
       Max CFL number:  0.20E+00 at (   3,  97,  52)
       Max divergence:  0.44E-04 at (   3, 103,  58)
       Min divergence: -0.41E-04 at (   3, 104,  44)
       Max VN number:   0.76E-01 at (   3, 110,  58)
       Mesh    4
       Max CFL number:  0.60E-02 at (  77,   3,   2)
       Max divergence:  0.13E-05 at (   4,  88,  31)
       Min divergence: -0.28E-05 at (  90, 125,  48)
       Max VN number:   0.46E-02 at (  38,  28,  27)
       Mesh    5
       Max CFL number:  0.59E-02 at (  85,  43,  67)
       Max divergence:  0.13E-05 at (  66,  29,  11)
       Min divergence: -0.33E-05 at (  81, 126,  48)
       Max VN number:   0.49E-02 at (  68,  36,  13)
       Mesh    6
       Max CFL number:  0.57E-02 at (  23, 121,  73)
       Max divergence:  0.15E-05 at (   8,  67,  71)
       Min divergence: -0.32E-05 at (  12, 126,  48)
       Max VN number:   0.44E-02 at (  79, 105,  37)
       Mesh    7
       Max CFL number:  0.57E-02 at (  70,  33,  43)
       Max divergence:  0.14E-05 at (  78,  66,  59)
       Min divergence: -0.46E-05 at (   1, 132,  42)
       Max VN number:   0.47E-02 at (  30,  49,  12)
       Mesh    8
       Max CFL number:  0.41E-01 at (  79,  66,  11)
       Max divergence:  0.62E-05 at (  79,  36,   6)
       Min divergence: -0.11E-04 at (   1, 132,   4)
       Max VN number:   0.98E-02 at (  70,   5,  10)
       Mesh    9
       Max CFL number:  0.59E-02 at (  69,  37,  65)
       Max divergence:  0.13E-05 at (  51,  12,  72)
       Min divergence: -0.30E-05 at ( 100,   8,  48)
       Max VN number:   0.46E-02 at (  31, 126,  41)
       Mesh   10
       Max CFL number:  0.60E-02 at (  28,  40,  23)
       Max divergence:  0.16E-05 at (  97,  77,   6)
       Min divergence: -0.31E-05 at ( 108,   8,  48)
       Max VN number:   0.47E-02 at (  51,  33,  55)
       Mesh   11
       Max CFL number:  0.59E-02 at (  72,  44,   3)
       Max divergence:  0.17E-05 at (  52, 113,   2)
       Min divergence: -0.31E-05 at (   1,   8,  48)
       Max VN number:   0.45E-02 at (  53,  94,  11)
       Mesh   12
       Max CFL number:  0.57E-02 at (  51,  72,   5)
       Max divergence:  0.17E-05 at (  73,  68,   2)
       Min divergence: -0.50E-05 at (   1,   2,   1)
       Max VN number:   0.46E-02 at ( 103, 114,  16)
       Mesh   13
       Max CFL number:  0.60E-02 at (  89, 133,  21)
       Max divergence:  0.17E-05 at (  55,  90,   2)
       Min divergence: -0.48E-05 at ( 110,   8,  48)
       Max VN number:   0.47E-02 at (  14,  99,  10)
       Mesh   14
       Max CFL number:  0.36E-01 at (  56,  66,  53)
       Max divergence:  0.34E-05 at (  56,  65,  57)
       Min divergence: -0.12E-04 at (   1,  51,  13)
       Max VN number:   0.81E-02 at (  56,  66,  53)
       Mesh   15
       Max CFL number:  0.57E-02 at (  31,   9,  49)
       Max divergence:  0.16E-05 at (  56,  27,   1)
       Min divergence: -0.17E-04 at (  13,   7,   1)
       Max VN number:   0.44E-02 at (  47,  35,   3)
       Mesh   16
       Max CFL number:  0.61E-02 at (  18,  28,  68)
       Max divergence:  0.14E-05 at (  22,  14,  40)
       Min divergence: -0.36E-05 at (  42,  15,  26)
       Max VN number:   0.44E-02 at (  22,  14,  40)
       Mesh   17
       Max CFL number:  0.56E-02 at (  32,  37,  32)
       Max divergence:  0.15E-05 at (  41,   4,   1)
       Min divergence: -0.51E-05 at (   3,   4,  32)
       Max VN number:   0.43E-02 at (  15,  29,  21)
       Mesh   18
       Max CFL number:  0.58E-02 at (  32,  54,  39)
       Max divergence:  0.13E-05 at (   7,  16,  18)
       Min divergence: -0.26E-05 at (   3,   8,  37)
       Max VN number:   0.45E-02 at (  10, 100,  33)
       Mesh   19
       Max CFL number:  0.57E-02 at (   7,  23,   8)
       Max divergence:  0.15E-05 at (  34,  43,   3)
       Min divergence: -0.16E-05 at (  10,  24,  38)
       Max VN number:   0.44E-02 at (  25,  49,   4)
       Mesh   20
       Max CFL number:  0.24E-02 at (   2,   8,   9)
       Max divergence:  0.81E-06 at (  17,   7,   2)
       Min divergence: -0.84E-06 at (   3,   4,   7)
       Max VN number:   0.18E-02 at (   2,   9,  14)
       Mesh   21
       Max CFL number:  0.28E-02 at (  46,  12,  13)
       Max divergence:  0.31E-04 at (  39,  19,  14)
       Min divergence: -0.25E-04 at (  39,  17,   1)
       Max VN number:   0.20E-02 at (  39,  15,   8)
 
       Time Step       5   March 16, 2020  17:43:22
       Step Size:    0.448E-01 s, Total Time: -149.77610 s
       Pressure Iterations:      2
       Maximum Velocity Error:  0.75E-01 on Mesh   3 at (   0 106  61)
       Maximum Pressure Error:  0.15E+00 on Mesh   3 at (   2 110  58)
       ---------------------------------------------------------------
       Mesh    1
       Max CFL number:  0.30E-02 at (  15,  28,   3)
       Max divergence:  0.18E-05 at (  15,  28,   3)
       Min divergence: -0.22E-05 at ( 227,   1,   4)
       Max VN number:   0.23E-02 at (  90,  42,  22)
       Mesh    2
       Max CFL number:  0.31E-02 at (   2,  41,   4)
       Max divergence:  0.13E-05 at ( 204,  46,  21)
       Min divergence: -0.13E-05 at (   2,  30,  55)
       Max VN number:   0.21E-02 at ( 127,  21,  24)
       Mesh    3
       Max CFL number:  0.24E+00 at (   3,  97,  52)
       Max divergence:  0.51E-04 at (   3, 103,  58)
       Min divergence: -0.51E-04 at (   3, 104,  44)
       Max VN number:   0.11E+00 at (   3, 110,  58)
       Mesh    4
       Max CFL number:  0.59E-02 at (  77,   3,   2)
       Max divergence:  0.13E-05 at (   4,  88,  31)
       Min divergence: -0.25E-05 at (  90, 125,  48)
       Max VN number:   0.45E-02 at (  38,  28,  27)
       Mesh    5
       Max CFL number:  0.58E-02 at (  85,  43,  67)
       Max divergence:  0.13E-05 at (  66,  29,  11)
       Min divergence: -0.30E-05 at (  81, 126,  48)
       Max VN number:   0.48E-02 at (  68,  36,  13)
       Mesh    6
       Max CFL number:  0.57E-02 at (  23, 121,  73)
       Max divergence:  0.15E-05 at (   8,  67,  71)
       Min divergence: -0.30E-05 at (  12, 126,  48)
       Max VN number:   0.44E-02 at (  79, 105,  37)
       Mesh    7
       Max CFL number:  0.57E-02 at (  71,  75,  70)
       Max divergence:  0.14E-05 at (  78,  66,  59)
       Min divergence: -0.40E-05 at (   1, 132,  42)
       Max VN number:   0.47E-02 at (  30,  49,  12)
       Mesh    8
       Max CFL number:  0.53E-01 at (  79,  66,  11)
       Max divergence:  0.76E-05 at (  79,  36,   6)
       Min divergence: -0.13E-04 at (  79,  66,  11)
       Max VN number:   0.15E-01 at (  70,   5,  10)
       Mesh    9
       Max CFL number:  0.59E-02 at (  69,  37,  65)
       Max divergence:  0.13E-05 at (  51,  12,  72)
       Min divergence: -0.27E-05 at ( 100,   8,  48)
       Max VN number:   0.46E-02 at (  31, 126,  41)
       Mesh   10
       Max CFL number:  0.60E-02 at (  28,  40,  23)
       Max divergence:  0.16E-05 at (  97,  77,   6)
       Min divergence: -0.29E-05 at ( 108,   8,  48)
       Max VN number:   0.47E-02 at (  51,  33,  55)
       Mesh   11
       Max CFL number:  0.59E-02 at (  72,  44,   3)
       Max divergence:  0.17E-05 at (  52, 113,   2)
       Min divergence: -0.29E-05 at (   1,   8,  48)
       Max VN number:   0.45E-02 at (  53,  94,  11)
       Mesh   12
       Max CFL number:  0.57E-02 at (  51,  72,   5)
       Max divergence:  0.17E-05 at (  73,  68,   2)
       Min divergence: -0.44E-05 at (   1,   2,   1)
       Max VN number:   0.46E-02 at ( 103, 114,  16)
       Mesh   13
       Max CFL number:  0.60E-02 at (  89, 133,  21)
       Max divergence:  0.17E-05 at (  55,  90,   2)
       Min divergence: -0.44E-05 at ( 110,   8,  48)
       Max VN number:   0.47E-02 at (  14,  99,  10)
       Mesh   14
       Max CFL number:  0.50E-01 at (  56,  66,  53)
       Max divergence:  0.48E-05 at (  56,  65,  57)
       Min divergence: -0.10E-04 at (   1,  51,  13)
       Max VN number:   0.13E-01 at (  56,  70,  53)
       Mesh   15
       Max CFL number:  0.57E-02 at (  31,   9,  49)
       Max divergence:  0.16E-05 at (  56,  27,   1)
       Min divergence: -0.15E-04 at (  13,   7,   1)
       Max VN number:   0.43E-02 at (  47,  35,   3)
       Mesh   16
       Max CFL number:  0.60E-02 at (  18,  28,  68)
       Max divergence:  0.14E-05 at (  22,  14,  40)
       Min divergence: -0.32E-05 at (  42,  15,  26)
       Max VN number:   0.44E-02 at (  22,  14,  40)
       Mesh   17
       Max CFL number:  0.56E-02 at (  32,  37,  32)
       Max divergence:  0.15E-05 at (  41,   4,   1)
       Min divergence: -0.44E-05 at (   3,   4,  32)
       Max VN number:   0.43E-02 at (  15,  29,  21)
       Mesh   18
       Max CFL number:  0.58E-02 at (  32,  54,  39)
       Max divergence:  0.13E-05 at (   7,  16,  18)
       Min divergence: -0.23E-05 at (   3,   8,  37)
       Max VN number:   0.45E-02 at (  10, 100,  33)
       Mesh   19
       Max CFL number:  0.57E-02 at (   7,  23,   8)
       Max divergence:  0.15E-05 at (  34,  43,   3)
       Min divergence: -0.16E-05 at (  21,  30,  39)
       Max VN number:   0.44E-02 at (  25,  49,   4)
       Mesh   20
       Max CFL number:  0.24E-02 at (  17,   7,   2)
       Max divergence:  0.84E-06 at (  17,   7,   2)
       Min divergence: -0.85E-06 at (   3,   4,   7)
       Max VN number:   0.18E-02 at (   2,   9,  14)
       Mesh   21
       Max CFL number:  0.28E-02 at (  46,  12,  13)
       Max divergence:  0.30E-04 at (  39,  19,  14)
       Min divergence: -0.14E-04 at (  39,  17,   1)
       Max VN number:   0.21E-02 at (  39,  15,   8)
 
       Time Step       6   March 16, 2020  17:43:51
       Step Size:    0.448E-01 s, Total Time: -149.73132 s
       Pressure Iterations:      1
       Maximum Velocity Error:  0.85E-01 on Mesh   3 at (   0 112  59)
       Maximum Pressure Error:  0.20E+00 on Mesh   3 at (   2 110  58)
       ---------------------------------------------------------------
       Mesh    1
       Max CFL number:  0.30E-02 at (  15,  28,   3)
       Max divergence:  0.18E-05 at (  15,  28,   3)
       Min divergence: -0.22E-05 at ( 227,   1,   4)
       Max VN number:   0.23E-02 at (  90,  42,  22)
       Mesh    2
       Max CFL number:  0.41E-02 at (   1,  18,   1)
       Max divergence:  0.13E-05 at ( 204,  46,  21)
       Min divergence: -0.13E-05 at (   2,  21,  14)
       Max VN number:   0.21E-02 at ( 127,  21,  24)
       Mesh    3
       Max CFL number:  0.27E+00 at (   3,  97,  52)
       Max divergence:  0.58E-04 at (   3, 103,  59)
       Min divergence: -0.58E-04 at (   3, 104,  44)
       Max VN number:   0.13E+00 at (   3, 110,  58)
       Mesh    4
       Max CFL number:  0.59E-02 at (  77,   3,   2)
       Max divergence:  0.13E-05 at (  26,  67,  71)
       Min divergence: -0.25E-05 at (  90, 125,  48)
       Max VN number:   0.45E-02 at (  38,  28,  27)
       Mesh    5
       Max CFL number:  0.58E-02 at (  85,  43,  67)
       Max divergence:  0.13E-05 at (  66,  29,  11)
       Min divergence: -0.30E-05 at (  81, 126,  48)
       Max VN number:   0.48E-02 at (  68,  36,  13)
       Mesh    6
       Max CFL number:  0.57E-02 at (  66, 131,   7)
       Max divergence:  0.15E-05 at (   8,  67,  71)
       Min divergence: -0.30E-05 at (  12, 126,  48)
       Max VN number:   0.44E-02 at (  79, 105,  37)
       Mesh    7
       Max CFL number:  0.57E-02 at (  71,  75,  70)
       Max divergence:  0.14E-05 at (  78,  66,  59)
       Min divergence: -0.40E-05 at (   1, 132,  42)
       Max VN number:   0.47E-02 at (  30,  49,  12)
       Mesh    8
       Max CFL number:  0.64E-01 at (  79,  66,  11)
       Max divergence:  0.90E-05 at (  79,  36,   6)
       Min divergence: -0.16E-04 at (  79,  66,  11)
       Max VN number:   0.21E-01 at (  79,  66,  10)
       Mesh    9
       Max CFL number:  0.59E-02 at (  69,  37,  65)
       Max divergence:  0.13E-05 at (  51,  12,  72)
       Min divergence: -0.28E-05 at ( 100,   8,  48)
       Max VN number:   0.46E-02 at (  31, 126,  41)
       Mesh   10
       Max CFL number:  0.60E-02 at (  28,  40,  23)
       Max divergence:  0.16E-05 at (  97,  77,   6)
       Min divergence: -0.29E-05 at ( 108,   8,  48)
       Max VN number:   0.47E-02 at (  51,  33,  55)
       Mesh   11
       Max CFL number:  0.59E-02 at (  72,  44,   3)
       Max divergence:  0.17E-05 at (  52, 113,   2)
       Min divergence: -0.29E-05 at (   1,   8,  48)
       Max VN number:   0.45E-02 at (  53,  94,  11)
       Mesh   12
       Max CFL number:  0.57E-02 at (  51,  72,   5)
       Max divergence:  0.17E-05 at (  73,  68,   2)
       Min divergence: -0.45E-05 at (   1,   2,   1)
       Max VN number:   0.46E-02 at ( 103, 114,  16)
       Mesh   13
       Max CFL number:  0.59E-02 at (  89, 133,  21)
       Max divergence:  0.17E-05 at (  55,  90,   2)
       Min divergence: -0.44E-05 at ( 110,   8,  48)
       Max VN number:   0.47E-02 at (  14,  99,  10)
       Mesh   14
       Max CFL number:  0.63E-01 at (  56,  69,  53)
       Max divergence:  0.59E-05 at (  56,  65,  57)
       Min divergence: -0.10E-04 at (   1,  51,  13)
       Max VN number:   0.18E-01 at (  56,  72,  54)
       Mesh   15
       Max CFL number:  0.57E-02 at (  31,   9,  49)
       Max divergence:  0.16E-05 at (  56,  27,   1)
       Min divergence: -0.15E-04 at (  13,   7,   1)
       Max VN number:   0.43E-02 at (  47,  35,   3)
       Mesh   16
       Max CFL number:  0.60E-02 at (  18,  28,  68)
       Max divergence:  0.14E-05 at (  22,  14,  40)
       Min divergence: -0.32E-05 at (  42,  15,  26)
       Max VN number:   0.44E-02 at (  22,  14,  40)
       Mesh   17
       Max CFL number:  0.56E-02 at (  32,  37,  32)
       Max divergence:  0.15E-05 at (  41,   4,   1)
       Min divergence: -0.44E-05 at (   3,   4,  32)
       Max VN number:   0.43E-02 at (  15,  29,  21)
       Mesh   18
       Max CFL number:  0.58E-02 at (  32,  54,  39)
       Max divergence:  0.13E-05 at (   7,  16,  18)
       Min divergence: -0.23E-05 at (   3,   8,  37)
       Max VN number:   0.45E-02 at (  10, 100,  33)
       Mesh   19
       Max CFL number:  0.56E-02 at (   7,  23,   8)
       Max divergence:  0.15E-05 at (  34,  43,   3)
       Min divergence: -0.16E-05 at (  21,  30,  39)
       Max VN number:   0.44E-02 at (  25,  49,   4)
       Mesh   20
       Max CFL number:  0.25E-02 at (  17,   7,   2)
       Max divergence:  0.88E-06 at (  17,   7,   2)
       Min divergence: -0.89E-06 at (  17,  11,  12)
       Max VN number:   0.18E-02 at (   2,   9,  14)
       Mesh   21
       Max CFL number:  0.28E-02 at (  46,  12,  13)
       Max divergence:  0.31E-04 at (  39,  14,  14)
       Min divergence: -0.14E-04 at (  40,  21,  12)
       Max VN number:   0.21E-02 at (  39,  15,   8)
 
       Time Step       7   March 16, 2020  17:44:06
       Step Size:    0.448E-01 s, Total Time: -149.68654 s
       Pressure Iterations:      1
       Maximum Velocity Error:  0.78E-01 on Mesh   3 at (   0 119  54)
       Maximum Pressure Error:  0.21E+00 on Mesh   3 at (   2 110  58)
       ---------------------------------------------------------------
       Mesh    1
       Max CFL number:  0.30E-02 at (  15,  28,   3)
       Max divergence:  0.18E-05 at (  15,  28,   3)
       Min divergence: -0.19E-05 at (  13,  45,  56)
       Max VN number:   0.23E-02 at (  90,  42,  22)
       Mesh    2
       Max CFL number:  0.48E-02 at (   1,  26,   4)
       Max divergence:  0.13E-05 at ( 204,  46,  21)
       Min divergence: -0.13E-05 at (   2,  21,  14)
       Max VN number:   0.21E-02 at ( 127,  21,  24)
       Mesh    3
       Max CFL number:  0.30E+00 at (   3,  97,  52)
       Max divergence:  0.63E-04 at (   3, 103,  59)
       Min divergence: -0.63E-04 at (   3, 104,  44)
       Max VN number:   0.15E+00 at (   3, 110,  58)
       Mesh    4
       Max CFL number:  0.59E-02 at (  77,   3,   2)
       Max divergence:  0.13E-05 at (  26,  67,  71)
       Min divergence: -0.22E-05 at (  90, 125,  48)
       Max VN number:   0.45E-02 at (  38,  28,  27)
       Mesh    5
       Max CFL number:  0.58E-02 at (  85,  43,  67)
       Max divergence:  0.14E-05 at (  66,  29,  11)
       Min divergence: -0.27E-05 at (  81, 126,  48)
       Max VN number:   0.48E-02 at (  68,  36,  13)
       Mesh    6
       Max CFL number:  0.57E-02 at (  66, 131,   7)
       Max divergence:  0.15E-05 at (   8,  67,  71)
       Min divergence: -0.27E-05 at (  52, 126,  48)
       Max VN number:   0.44E-02 at (  79, 105,  37)
       Mesh    7
       Max CFL number:  0.57E-02 at (  71,  75,  70)
       Max divergence:  0.14E-05 at (  78,  66,  59)
       Min divergence: -0.34E-05 at (   1, 132,  42)
       Max VN number:   0.47E-02 at (  30,  49,  12)
       Mesh    8
       Max CFL number:  0.74E-01 at (  79,  66,  11)
       Max divergence:  0.10E-04 at (  79,  36,   6)
       Min divergence: -0.18E-04 at (  79,  66,  11)
       Max VN number:   0.27E-01 at (  79,  66,  10)
       Mesh    9
       Max CFL number:  0.59E-02 at (  69,  37,  65)
       Max divergence:  0.13E-05 at (  51,  12,  72)
       Min divergence: -0.25E-05 at ( 100,   8,  48)
       Max VN number:   0.46E-02 at (  31, 126,  41)
       Mesh   10
       Max CFL number:  0.60E-02 at (  28,  40,  23)
       Max divergence:  0.17E-05 at (  97,  77,   6)
       Min divergence: -0.26E-05 at ( 108,   8,  48)
       Max VN number:   0.47E-02 at (  51,  33,  55)
       Mesh   11
       Max CFL number:  0.59E-02 at (  72,  44,   3)
       Max divergence:  0.17E-05 at (  52, 113,   2)
       Min divergence: -0.26E-05 at (   1,   8,  48)
       Max VN number:   0.45E-02 at (  53,  94,  11)
       Mesh   12
       Max CFL number:  0.57E-02 at (  51,  72,   5)
       Max divergence:  0.17E-05 at (  73,  68,   2)
[...]
       Radiation Loss to Boundaries:        -0.275 kW
       Mesh   13
       Max CFL number:  0.42E-01 at (   6, 126,   3)
       Max divergence:  0.24E-04 at (  13, 131,   1)
       Min divergence: -0.32E-04 at (   6, 126,   2)
       Max VN number:   0.21E-01 at (  11, 129,   1)
       Mesh   14
       Max CFL number:  0.30E-01 at (  52,   7,  51)
       Max divergence:  0.27E-03 at (  49,  66,  25)
       Min divergence: -0.37E-03 at (  48,  66,  25)
       Max VN number:   0.14E-01 at (  50,   7,  53)
       Mesh   15
       Max CFL number:  0.23E+00 at (   2,  39,  36)
       Max divergence:  0.14E-03 at (   2,  26,  40)
       Min divergence: -0.15E-03 at (  57,   4,  53)
       Max VN number:   0.19E+00 at (   2,  39,  36)
       Mesh   16
       Max CFL number:  0.28E-01 at (  48,  47,  38)
       Max divergence:  0.10E-04 at (   1,   1,   5)
       Min divergence: -0.23E-04 at (  48,   3,  39)
       Max VN number:   0.14E-01 at (  48,  37,  38)
       Mesh   17
       Max CFL number:  0.18E+00 at (  44,  14,   4)
       Max divergence:  0.78E-04 at (  42,  11,   4)
       Min divergence: -0.17E-03 at (  44,  16,  14)
       Max VN number:   0.85E-01 at (  43,  11,   1)
       Mesh   18
       Max CFL number:  0.26E+00 at (  16,  92,  42)
       Max divergence:  0.11E-01 at (   5, 101,  37)
       Min divergence: -0.14E-01 at (   7,  97,  26)
       Max VN number:   0.15E+00 at (  11, 101,  41)
       Radiation Loss to Boundaries:        -0.014 kW
       Mesh   19
       Max CFL number:  0.10E+00 at (  13,  16,  27)
       Max divergence:  0.37E-02 at (  14,  17,  25)
       Min divergence: -0.40E-02 at (  13,  17,  22)
       Max VN number:   0.59E-01 at (  11,  17,  40)
       Radiation Loss to Boundaries:         0.020 kW
       Mesh   20
       Max CFL number:  0.21E-01 at (  17,  12,   1)
       Max divergence:  0.70E-03 at (  18,  12,   1)
       Min divergence: -0.90E-03 at (  17,  12,   2)
       Max VN number:   0.16E-01 at (  17,  12,   1)
       Mesh   21
       Max CFL number:  0.12E+00 at (  37,  10,  17)
       Max divergence:  0.15E-03 at (  39,  26,  15)
       Min divergence: -0.15E-03 at (  35,  25,  15)
       Max VN number:   0.65E-01 at (  39,  26,  16)
 
       Time Step   10800   March 19, 2020  15:13:11
       Step Size:    0.136E-01 s, Total Time:     122.07 s
       Pressure Iterations:      5
       Maximum Velocity Error:  0.90E-01 on Mesh   8 at (  46  46   8)
       Maximum Pressure Error:  0.51E+03 on Mesh   8 at (  46  44   9)
       ---------------------------------------------------------------
       Mesh    1
       Max CFL number:  0.78E-01 at ( 225,  65,  54)
       Max divergence:  0.65E-02 at ( 225,  10,   4)
       Min divergence: -0.63E-02 at ( 223,  66,  57)
       Max VN number:   0.35E-01 at ( 198,  66,  54)
       Radiation Loss to Boundaries:         3.952 kW
       Mesh    2
       Max CFL number:  0.72E-01 at (   1,   3,  56)
       Max divergence:  0.31E-02 at (   6,  43,  54)
       Min divergence: -0.66E-02 at (  14,  47,  56)
       Max VN number:   0.29E-01 at (  14,  47,  56)
       Radiation Loss to Boundaries:         0.210 kW
       Mesh    3
       Max CFL number:  0.29E+00 at (  75, 106,  48)
       Max divergence:  0.16E-02 at (  69, 104,  63)
       Min divergence: -0.18E-02 at (  68, 105,  63)
       Max VN number:   0.10E+00 at (   3, 110,  45)
       Mesh    4
       Max CFL number:  0.30E+00 at (  41, 102,  51)
       Max divergence:  0.68E-02 at (  81,  70,  61)
       Min divergence: -0.81E-02 at (  81,  71,  62)
       Max VN number:   0.12E+00 at (  79, 110,  60)
       Radiation Loss to Boundaries:        -0.030 kW
       Mesh    5
       Max CFL number:  0.27E+00 at (   2, 100,  50)
       Max divergence:  0.80E-02 at (  44,  96,  62)
       Min divergence: -0.10E-01 at (   2,  80,  68)
       Max VN number:   0.11E+00 at (  83,  90,  69)
       Radiation Loss to Boundaries:         1.647 kW
       Mesh    6
       Max CFL number:  0.23E+00 at (  82,  65,  70)
       Max divergence:  0.12E-01 at (  29,  95,  53)
       Min divergence: -0.90E-02 at (  46, 125,  45)
       Max VN number:   0.14E+00 at (  75,  73,  72)
       Radiation Loss to Boundaries:         6.744 kW
       Mesh    7
       Max CFL number:  0.29E+00 at (  85,  37,  65)
       Max divergence:  0.14E-01 at (  35, 121,  48)
       Min divergence: -0.23E-01 at (  78,  90,  69)
       Max VN number:   0.13E+00 at (  94,  73,  72)
       Radiation Loss to Boundaries:        16.195 kW
       Mesh    8
       Max CFL number:  0.85E+00 at (  49,  42,  47)
       Max divergence:  0.74E+01 at (  44,  46,  10)
       Min divergence: -0.93E+01 at (  46,  44,  11)
       Max VN number:   0.24E+00 at (  47,  39,  51)
       Total Heat Release Rate:           2389.141 kW
       Radiation Loss to Boundaries:      -915.681 kW
       Mesh    9
       Max CFL number:  0.61E+00 at (  74,  42,  14)
       Max divergence:  0.96E-01 at (  69,  43,   2)
       Min divergence: -0.90E-01 at (  69,  44,   2)
       Max VN number:   0.25E+00 at (  72,  66,  70)
       Radiation Loss to Boundaries:         7.990 kW
       Mesh   10
       Max CFL number:  0.60E+00 at (   6,  29,  62)
       Max divergence:  0.34E-01 at (  18,  70,  70)
       Min divergence: -0.35E-01 at (   1,  14,   8)
       Max VN number:   0.30E+00 at (   5,  36,  64)
       Radiation Loss to Boundaries:        -0.234 kW
       Mesh   11
       Max CFL number:  0.28E+00 at (  23,  70,  60)
       Max divergence:  0.11E-01 at (   2,  46,  68)
       Min divergence: -0.96E-02 at (  81, 102,  47)
       Max VN number:   0.16E+00 at (   4,  55,  71)
       Radiation Loss to Boundaries:        -1.233 kW
       Mesh   12
       Max CFL number:  0.19E+00 at (   8,  87,  67)
       Max divergence:  0.49E-02 at (  20,  48,  70)
       Min divergence: -0.58E-02 at (  22,  97,  64)
       Max VN number:   0.98E-01 at (  23,  92,  66)
       Radiation Loss to Boundaries:        -0.417 kW
       Mesh   13
       Max CFL number:  0.45E-01 at (   6, 126,   3)
       Max divergence:  0.29E-04 at (  13, 131,   1)
       Min divergence: -0.37E-04 at (  14, 130,   2)
       Max VN number:   0.23E-01 at (  11, 130,   1)
       Mesh   14
       Max CFL number:  0.29E-01 at (  51,   7,  47)
       Max divergence:  0.27E-03 at (  49,  66,  25)
       Min divergence: -0.36E-03 at (  48,  66,  25)
       Max VN number:   0.15E-01 at (  52,   7,  53)
       Mesh   15
       Max CFL number:  0.18E+00 at (   2,  27,  39)
       Max divergence:  0.14E-03 at (  28,  10,  59)
       Min divergence: -0.15E-03 at (  57,   4,  53)
       Max VN number:   0.15E+00 at (   2,  27,  39)
       Mesh   16
       Max CFL number:  0.34E-01 at (  48,  47,  38)
       Max divergence:  0.11E-04 at (   1,   1,   5)
       Min divergence: -0.31E-04 at (  48,  47,  38)
       Max VN number:   0.19E-01 at (  48,  37,  38)
       Mesh   17
       Max CFL number:  0.18E+00 at (  44,  14,   9)
       Max divergence:  0.75E-04 at (  42,  11,   3)
       Min divergence: -0.16E-03 at (  44,  16,  14)
       Max VN number:   0.78E-01 at (  44,  11,   1)
       Mesh   18
       Max CFL number:  0.22E+00 at (  10,  85,  39)
       Max divergence:  0.91E-02 at (   8,  67,  36)
       Min divergence: -0.62E-02 at (   5, 106,  23)
       Max VN number:   0.11E+00 at (   7, 101,  37)
       Radiation Loss to Boundaries:        -0.011 kW
       Mesh   19
       Max CFL number:  0.94E-01 at (  15,  34,  35)
       Max divergence:  0.53E-02 at (  13,  21,  28)
       Min divergence: -0.58E-02 at (  13,  20,  25)
       Max VN number:   0.54E-01 at (   3,  39,  36)
       Radiation Loss to Boundaries:         0.023 kW
       Mesh   20
       Max CFL number:  0.21E-01 at (  17,  12,   1)
       Max divergence:  0.69E-03 at (  18,  12,   1)
       Min divergence: -0.88E-03 at (  17,  12,   2)
       Max VN number:   0.16E-01 at (  17,  12,   1)
       Mesh   21
       Max CFL number:  0.12E+00 at (  34,  10,  18)
       Max divergence:  0.13E-03 at (  39,  26,  15)
       Min divergence: -0.12E-03 at (  31,  17,  13)
       Max VN number:   0.72E-01 at (  34,  21,  20)
 
       Time Step   10900   March 19, 2020  15:56:30
       Step Size:    0.144E-01 s, Total Time:     123.48 s
       Pressure Iterations:      6
       Maximum Velocity Error:  0.86E-01 on Mesh   8 at (  49  47  10)
       Maximum Pressure Error:  0.86E+03 on Mesh   8 at (  43  37  10)
       ---------------------------------------------------------------
       Mesh    1
       Max CFL number:  0.87E-01 at ( 223,  66,  55)
       Max divergence:  0.70E-02 at ( 225,   2,   3)
       Min divergence: -0.78E-02 at ( 194,  66,  53)
       Max VN number:   0.35E-01 at ( 190,  66,  55)
       Radiation Loss to Boundaries:         4.610 kW
       Mesh    2
       Max CFL number:  0.94E-01 at (   1,   2,  57)
       Max divergence:  0.32E-02 at (   3,   3,  57)
       Min divergence: -0.44E-02 at (   1,   2,  52)
       Max VN number:   0.44E-01 at (   3,   3,  57)
       Radiation Loss to Boundaries:         0.243 kW
       Mesh    3
       Max CFL number:  0.31E+00 at (  89, 101,  48)
       Max divergence:  0.13E-02 at (  87, 104,  63)
       Min divergence: -0.19E-02 at (  27,  93,  68)
       Max VN number:   0.11E+00 at (   3,  97,  45)
       Mesh    4
       Max CFL number:  0.32E+00 at (  41, 100,  52)
       Max divergence:  0.85E-02 at (  53,  42,  66)
       Min divergence: -0.11E-01 at (  80,  79,  66)
       Max VN number:   0.15E+00 at (   1, 104,  62)
       Mesh    5
       Max CFL number:  0.29E+00 at (   8, 106,  45)
       Max divergence:  0.73E-02 at (  43,  96,  64)
       Min divergence: -0.97E-02 at (  42,  97,  64)
       Max VN number:   0.12E+00 at (  68,  89,  68)
       Radiation Loss to Boundaries:         2.116 kW
       Mesh    6
       Max CFL number:  0.24E+00 at (  84,  82,  68)
       Max divergence:  0.98E-02 at (  59, 112,  35)
       Min divergence: -0.10E-01 at (  62, 131,   1)
       Max VN number:   0.16E+00 at (  75,  73,  72)
       Radiation Loss to Boundaries:         8.180 kW
       Mesh    7
       Max CFL number:  0.31E+00 at (  68,  38,  65)
       Max divergence:  0.14E-01 at (  35, 121,  48)
       Min divergence: -0.19E-01 at (  73,  59,  71)
       Max VN number:   0.19E+00 at (  69,  39,  65)
       Radiation Loss to Boundaries:        18.653 kW
       Mesh    8
       Max CFL number:  0.90E+00 at (  46,  45,  27)
       Max divergence:  0.59E+01 at (  44,  37,  10)
       Min divergence: -0.12E+02 at (  43,  37,  11)
       Max VN number:   0.28E+00 at (  88,  16, 114)
       Total Heat Release Rate:           2350.589 kW
       Radiation Loss to Boundaries:      -990.742 kW
       Mesh    9
       Max CFL number:  0.71E+00 at (  74,  35,   9)
       Max divergence:  0.64E-01 at (  86,  36,  10)
       Min divergence: -0.75E-01 at (  72,  36,   1)
       Max VN number:   0.29E+00 at (  81,  12,   1)
       Radiation Loss to Boundaries:         9.569 kW
       Mesh   10
       Max CFL number:  0.51E+00 at (  38,  45,  68)
       Max divergence:  0.29E-01 at (  52,  55,  70)
       Min divergence: -0.27E-01 at (  49,  35,  57)
       Max VN number:   0.28E+00 at (  31,  31,  62)
       Radiation Loss to Boundaries:        -0.077 kW
       Mesh   11
       Max CFL number:  0.30E+00 at (   7,  52,  68)
       Max divergence:  0.16E-01 at (  97, 102,  50)
       Min divergence: -0.11E-01 at (  85, 103,  48)
       Max VN number:   0.18E+00 at (   4,  55,  71)
       Radiation Loss to Boundaries:        -1.168 kW
       Mesh   12
       Max CFL number:  0.21E+00 at (   8,  69,  64)
       Max divergence:  0.56E-02 at (  38,  93,  68)
       Min divergence: -0.52E-02 at (  24, 104,  60)
       Max VN number:   0.12E+00 at (   6,  73,  72)
       Radiation Loss to Boundaries:        -0.581 kW
       Mesh   13
       Max CFL number:  0.51E-01 at (   6, 126,   3)
       Max divergence:  0.34E-04 at (  13, 131,   1)
       Min divergence: -0.42E-04 at (  15, 130,   2)
       Max VN number:   0.24E-01 at (  11, 130,   1)
       Mesh   14
       Max CFL number:  0.31E-01 at (  51,   7,  49)
       Max divergence:  0.28E-03 at (  49,  66,  25)
       Min divergence: -0.42E-03 at (  53,   7,  53)
       Max VN number:   0.17E-01 at (  52,   7,  53)
       Mesh   15
       Max CFL number:  0.23E+00 at (   2,  25,  39)
       Max divergence:  0.30E-03 at (  27,  25,  55)
       Min divergence: -0.44E-02 at (  29,  10,  40)
       Max VN number:   0.20E+00 at (   2,  25,  39)
       Mesh   16
       Max CFL number:  0.39E-01 at (  48,  47,  39)
       Max divergence:  0.12E-04 at (   1,   1,   3)
       Min divergence: -0.33E-04 at (  48,   2,  39)
       Max VN number:   0.24E-01 at (  48,  37,  38)
       Mesh   17
       Max CFL number:  0.20E+00 at (  44,  14,   2)
       Max divergence:  0.76E-04 at (  42,  11,   3)
       Min divergence: -0.18E-03 at (  44,  16,  14)
       Max VN number:   0.89E-01 at (  43,  11,   1)
       Mesh   18
       Max CFL number:  0.24E+00 at (  17,  95,  41)
       Max divergence:  0.90E-02 at (   8,  93,  36)
       Min divergence: -0.99E-02 at (  17,  89,  39)
       Max VN number:   0.14E+00 at (  28,  93,  41)
       Radiation Loss to Boundaries:         0.009 kW
       Mesh   19
       Max CFL number:  0.10E+00 at (  28,   1,  35)
       Max divergence:  0.40E-02 at (   9,  19,  22)
       Min divergence: -0.51E-02 at (  13,  23,  25)
       Max VN number:   0.64E-01 at (   3,  39,  36)
       Radiation Loss to Boundaries:         0.036 kW
       Mesh   20
       Max CFL number:  0.22E-01 at (  17,  12,   1)
       Max divergence:  0.63E-03 at (  18,  12,   1)
       Min divergence: -0.94E-03 at (  17,  12,   2)
       Max VN number:   0.17E-01 at (  17,  12,   1)
       Mesh   21
       Max CFL number:  0.14E+00 at (  31,  11,  18)
       Max divergence:  0.14E-03 at (  40,  17,  16)
       Min divergence: -0.12E-03 at (  28,  11,  15)
       Max VN number:   0.91E-01 at (  34,  21,  20)
 
       Time Step   11000   March 19, 2020  16:38:02
       Step Size:    0.137E-01 s, Total Time:     124.85 s
       Pressure Iterations:      4
       Maximum Velocity Error:  0.85E-01 on Mesh   8 at (  47  46   8)
       Maximum Pressure Error:  0.59E+03 on Mesh   8 at (  47  43   9)
       ---------------------------------------------------------------
       Mesh    1
       Max CFL number:  0.72E-01 at ( 224,  65,  54)
       Max divergence:  0.59E-02 at ( 225,   2,   3)
       Min divergence: -0.70E-02 at ( 193,  66,  54)
       Max VN number:   0.37E-01 at (  11,  60,   3)
       Radiation Loss to Boundaries:         4.426 kW
       Mesh    2
       Max CFL number:  0.76E-01 at (   2,   2,  57)
       Max divergence:  0.48E-02 at (   5,   3,  57)
       Min divergence: -0.35E-02 at (   5,   3,  56)
       Max VN number:   0.44E-01 at (   3,   3,  57)
       Radiation Loss to Boundaries:         0.208 kW
       Mesh    3
       Max CFL number:  0.28E+00 at (  67, 104,  49)
       Max divergence:  0.11E-02 at (  28,  95,  67)
       Min divergence: -0.20E-02 at (  29,  93,  68)
       Max VN number:   0.10E+00 at (   3, 110,  45)
       Mesh    4
       Max CFL number:  0.30E+00 at (  22, 103,  49)
       Max divergence:  0.98E-02 at (  70,  68,  67)
       Min divergence: -0.78E-02 at (  63,  71,  63)
       Max VN number:   0.11E+00 at (   1, 102,  63)
       Radiation Loss to Boundaries:         0.008 kW
       Mesh    5
       Max CFL number:  0.24E+00 at (  19, 114,  39)
       Max divergence:  0.73E-02 at (  48, 102,  60)
       Min divergence: -0.12E-01 at (  42, 100,  59)
       Max VN number:   0.11E+00 at (  83,  90,  69)
       Radiation Loss to Boundaries:         1.912 kW
       Mesh    6
       Max CFL number:  0.22E+00 at (  70,  84,  67)
       Max divergence:  0.98E-02 at (  54, 110,  37)
       Min divergence: -0.15E-01 at (  75,  73,  72)
       Max VN number:   0.13E+00 at (  75,  73,  72)
       Radiation Loss to Boundaries:         7.158 kW
       Mesh    7
       Max CFL number:  0.31E+00 at (  94,  68,  66)
       Max divergence:  0.14E-01 at (  35, 121,  48)
       Min divergence: -0.17E-01 at (  76, 131,  42)
       Max VN number:   0.13E+00 at (  70,  44,  67)
       Radiation Loss to Boundaries:        16.019 kW
       Mesh    8
       Max CFL number:  0.89E+00 at (  47,  45,  24)
       Max divergence:  0.72E+01 at (  43,  37,  10)
       Min divergence: -0.73E+01 at (  47,  44,  11)
       Max VN number:   0.26E+00 at (  88,  46, 114)
       Total Heat Release Rate:           2432.753 kW
       Radiation Loss to Boundaries:      -924.394 kW
       Mesh    9
       Max CFL number:  0.62E+00 at (  77,  43,   8)
       Max divergence:  0.14E+00 at (  81,  42,   3)
       Min divergence: -0.16E+00 at (  74,  48,   1)
       Max VN number:   0.28E+00 at (  83,  48,   3)
       Radiation Loss to Boundaries:         8.126 kW
       Mesh   10
       Max CFL number:  0.41E+00 at (  58,  38,  64)
       Max divergence:  0.25E-01 at (  70,  41,  60)
       Min divergence: -0.24E-01 at (  76,  34,  61)
       Max VN number:   0.21E+00 at (  57,  46,  68)
       Radiation Loss to Boundaries:        -0.124 kW
       Mesh   11
       Max CFL number:  0.26E+00 at (   7,  36,  65)
       Max divergence:  0.14E-01 at (   2,  31,  62)
       Min divergence: -0.10E-01 at (   2,  32,  62)
       Max VN number:   0.15E+00 at (  37,  55,  71)
       Radiation Loss to Boundaries:        -1.107 kW
       Mesh   12
       Max CFL number:  0.20E+00 at (   3,  72,  64)
       Max divergence:  0.78E-02 at (  50,  76,  69)
       Min divergence: -0.61E-02 at (  50,  76,  70)
       Max VN number:   0.12E+00 at (   6,  73,  72)
       Radiation Loss to Boundaries:        -0.728 kW
       Mesh   13
       Max CFL number:  0.51E-01 at (   6, 126,   3)
       Max divergence:  0.39E-04 at (  13, 131,   1)
       Min divergence: -0.50E-04 at (   3,  80,  23)
       Max VN number:   0.25E-01 at (  11, 130,   1)
       Mesh   14
       Max CFL number:  0.29E-01 at (  49,   7,  42)
       Max divergence:  0.29E-03 at (  49,  66,  25)
       Min divergence: -0.38E-03 at (  48,  66,  25)
       Max VN number:   0.15E-01 at (  53,   7,  53)
       Mesh   15
       Max CFL number:  0.20E+00 at (   2,  25,  39)
       Max divergence:  0.92E-03 at (  29,  28,  40)
       Min divergence: -0.99E-03 at (  27,  25,  55)
       Max VN number:   0.17E+00 at (   2,  27,  39)
       Mesh   16
       Max CFL number:  0.42E-01 at (  48,  47,  39)
       Max divergence:  0.13E-04 at (   1,   1,   5)
       Min divergence: -0.39E-04 at (  48,  47,  39)
       Max VN number:   0.26E-01 at (  48,  37,  38)
       Mesh   17
       Max CFL number:  0.20E+00 at (  44,  14,   2)
       Max divergence:  0.81E-04 at (  44,   9,   2)
       Min divergence: -0.20E-03 at (  44,  16,  14)
       Max VN number:   0.83E-01 at (  43,  18,   1)
       Mesh   18
       Max CFL number:  0.37E+00 at (  23, 106,  40)
       Max divergence:  0.15E-01 at (  32, 106,  39)
       Min divergence: -0.12E-01 at (  17,  96,  40)
       Max VN number:   0.21E+00 at (  15, 106,  42)
       Radiation Loss to Boundaries:         0.005 kW
       Mesh   19
       Max CFL number:  0.98E-01 at (  13,  39,  35)
       Max divergence:  0.48E-02 at (  13,  52,  31)
       Min divergence: -0.44E-02 at (  13,  26,  25)
       Max VN number:   0.65E-01 at (   3,  39,  36)
       Radiation Loss to Boundaries:         0.032 kW
       Mesh   20
       Max CFL number:  0.22E-01 at (  17,  12,   1)
       Max divergence:  0.82E-03 at (  17,  12,   1)
       Min divergence: -0.93E-03 at (  17,  12,   2)
       Max VN number:   0.17E-01 at (  17,  12,   1)
       Mesh   21
       Max CFL number:  0.14E+00 at (  26,  10,  18)
       Max divergence:  0.13E-03 at (  42,  18,  17)
       Min divergence: -0.10E-03 at (  23,  11,  14)
       Max VN number:   0.88E-01 at (  30,  20,  20)
 